REMARK  Name = meth_amp_minimized.pdb
REMARK  10 active torsions:
REMARK  status: ('A' for Active; 'I' for Inactive)
REMARK    1  A    between atoms: C_7  and  C_9
REMARK    2  A    between atoms: C_10  and  C_11
REMARK    3  A    between atoms: C_11  and  O_13
REMARK    4  A    between atoms: O_13  and  P_14
REMARK    5  A    between atoms: P_14  and  O_17
REMARK    6  A    between atoms: O_17  and  C_18
REMARK    7  A    between atoms: C_18  and  C_19
REMARK    8  A    between atoms: C_20  and  O_35
REMARK    9  A    between atoms: C_21  and  O_34
REMARK   10  A    between atoms: C_22  and  N_24
REMARK                            x       y       z     vdW  Elec       q    Type
REMARK                         _______ _______ _______ _____ _____    ______ ____
ROOT
ATOM      1  C   UNL     1      -1.680   0.414  -1.142  0.00  0.00    +0.000 C 
ATOM      2  C   UNL     1      -1.611   1.188   0.176  0.00  0.00    +0.000 C 
ATOM      3  C   UNL     1      -2.980   0.943   0.786  0.00  0.00    +0.000 C 
ATOM      4  C   UNL     1      -3.856   0.945  -0.469  0.00  0.00    +0.000 C 
ATOM      5  O   UNL     1      -3.067   0.415  -1.559  0.00  0.00    +0.000 OA
ENDROOT
BRANCH   4   6
ATOM      6  N   UNL     1      -5.070   0.164  -0.353  0.00  0.00    +0.000 N 
ATOM      7  C   UNL     1      -5.163  -1.202  -0.263  0.00  0.00    +0.000 A 
ATOM      8  N   UNL     1      -6.415  -1.610  -0.202  0.00  0.00    +0.000 NA
ATOM      9  C   UNL     1      -7.162  -0.451  -0.245  0.00  0.00    +0.000 A 
ATOM     10  C   UNL     1      -8.548  -0.221  -0.230  0.00  0.00    +0.000 A 
ATOM     11  N   UNL     1      -8.997   1.050  -0.335  0.00  0.00    +0.000 NA
ATOM     12  C   UNL     1      -8.081   2.041  -0.419  0.00  0.00    +0.000 A 
ATOM     13  N   UNL     1      -6.738   1.946  -0.441  0.00  0.00    +0.000 NA
ATOM     14  C   UNL     1      -6.345   0.663  -0.350  0.00  0.00    +0.000 A 
ATOM     15  N   UNL     1      -9.485  -1.246  -0.145  0.00  0.00    +0.000 N 
ATOM     16  H   UNL     1     -10.367  -0.981  -0.558  0.00  0.00    +0.000 HD
ATOM     17  H   UNL     1      -9.092  -2.147  -0.397  0.00  0.00    +0.000 HD
ENDBRANCH   4   6
BRANCH   3  18
ATOM     18  O   UNL     1      -3.338   1.984   1.701  0.00  0.00    +0.000 OA
ATOM     19  H   UNL     1      -2.821   2.762   1.407  0.00  0.00    +0.000 HD
ENDBRANCH   3  18
BRANCH   2  20
ATOM     20  O   UNL     1      -1.503   2.610  -0.087  0.00  0.00    +0.000 OA
ATOM     21  H   UNL     1      -0.584   2.748  -0.383  0.00  0.00    +0.000 HD
ENDBRANCH   2  20
BRANCH   1  22
ATOM     22  C   UNL     1      -1.199  -1.032  -1.056  0.00  0.00    +0.000 C 
BRANCH  22  23
ATOM     23  O   UNL     1       0.163  -1.064  -0.675  0.00  0.00    +0.000 OA
BRANCH  23  24
ATOM     24  P   UNL     1       0.471  -1.959   0.653  0.00  0.00    +0.000 P 
ATOM     25  O   UNL     1      -0.281  -1.273   1.765  0.00  0.00    +0.000 OA
ATOM     26  O   UNL     1       0.231  -3.391   0.259  0.00  0.00    +0.000 OA
BRANCH  24  27
ATOM     27  O   UNL     1       2.043  -1.652   0.757  0.00  0.00    +0.000 OA
BRANCH  27  28
ATOM     28  C   UNL     1       2.824  -2.156   1.712  0.00  0.00    +0.000 C 
ATOM     29  O   UNL     1       2.522  -2.877   2.651  0.00  0.00    +0.000 OA
BRANCH  28  31
ATOM     30  C   UNL     1       4.668  -0.972   0.501  0.00  0.00    +0.000 C 
ATOM     31  C   UNL     1       4.231  -1.720   1.526  0.00  0.00    +0.000 C 
BRANCH  30  38
ATOM     32  C   UNL     1       9.479   2.104  -0.899  0.00  0.00    +0.000 C 
ATOM     33  O   UNL     1       8.048   2.273  -0.955  0.00  0.00    +0.000 OA
ATOM     34  C   UNL     1       7.631   1.092  -0.425  0.00  0.00    +0.000 A 
ATOM     35  C   UNL     1       8.680   0.273  -0.080  0.00  0.00    +0.000 A 
ATOM     36  C   UNL     1       8.474  -0.974   0.466  0.00  0.00    +0.000 A 
ATOM     37  C   UNL     1       7.151  -1.386   0.666  0.00  0.00    +0.000 A 
ATOM     38  C   UNL     1       6.065  -0.547   0.329  0.00  0.00    +0.000 A 
ATOM     39  C   UNL     1       6.318   0.711  -0.239  0.00  0.00    +0.000 A 
ATOM     40  O   UNL     1       9.888   0.836  -0.347  0.00  0.00    +0.000 OA
ENDBRANCH  30  38
ENDBRANCH  28  31
ENDBRANCH  27  28
ENDBRANCH  24  27
ENDBRANCH  23  24
ENDBRANCH  22  23
ENDBRANCH   1  22
TORSDOF 10
