REMARK  Name = ferulic_minimized.pdb
REMARK  6 active torsions:
REMARK  status: ('A' for Active; 'I' for Inactive)
REMARK    1  A    between atoms: O_1  and  C_6
REMARK    2  A    between atoms: O_1  and  C_13
REMARK    3  A    between atoms: O_2  and  C_9
REMARK    4  A    between atoms: O_3  and  C_14
REMARK    5  A    between atoms: C_5  and  C_11
REMARK    6  A    between atoms: C_12  and  C_14
REMARK                            x       y       z     vdW  Elec       q    Type
REMARK                         _______ _______ _______ _____ _____    ______ ____
ROOT
ATOM      1  C   UNL     1       0.521  -0.687   0.103  0.00  0.00    +0.000 A 
ATOM      2  C   UNL     1      -1.737  -0.361  -0.761  0.00  0.00    +0.000 A 
ATOM      3  C   UNL     1      -0.606   0.128  -0.095  0.00  0.00    +0.000 A 
ATOM      4  C   UNL     1       0.494  -2.011  -0.350  0.00  0.00    +0.000 A 
ATOM      5  C   UNL     1      -1.730  -1.686  -1.218  0.00  0.00    +0.000 A 
ATOM      6  C   UNL     1      -0.626  -2.511  -1.015  0.00  0.00    +0.000 A 
ENDROOT
BRANCH   2   7
ATOM      7  O   UNL     1      -2.878   0.356  -1.006  0.00  0.00    +0.000 OA
ATOM      8  C   UNL     1      -2.920   1.701  -0.551  0.00  0.00    +0.000 C 
ENDBRANCH   2   7
BRANCH   5   9
ATOM      9  O   UNL     1      -2.831  -2.174  -1.872  0.00  0.00    +0.000 OA
ATOM     10  H   UNL     1      -2.671  -3.098  -2.118  0.00  0.00    +0.000 HD
ENDBRANCH   5   9
BRANCH   1  11
ATOM     11  C   UNL     1       1.714  -0.213   0.819  0.00  0.00    +0.000 C 
ATOM     12  C   UNL     1       2.217   1.024   0.698  0.00  0.00    +0.000 C 
BRANCH  12  14
ATOM     13  O   UNL     1       4.078   0.693   2.193  0.00  0.00    +0.000 OA
ATOM     14  C   UNL     1       3.425   1.394   1.446  0.00  0.00    +0.000 C 
BRANCH  14  15
ATOM     15  O   UNL     1       3.746   2.674   1.198  0.00  0.00    +0.000 OA
ATOM     16  H   UNL     1       4.553   2.820   1.734  0.00  0.00    +0.000 HD
ENDBRANCH  14  15
ENDBRANCH  12  14
ENDBRANCH   1  11
TORSDOF 5
