MODEL 1
REMARK VINA RESULT:    -6.172      0.000      0.000
REMARK INTER + INTRA:          -6.220
REMARK INTER:                  -6.033
REMARK INTRA:                  -0.186
REMARK UNBOUND:                 1.395
REMARK  Name = ferulic_minimized.pdb
REMARK  6 active torsions:
REMARK  status: ('A' for Active; 'I' for Inactive)
REMARK    1  A    between atoms: O_1  and  C_6
REMARK    2  A    between atoms: O_1  and  C_13
REMARK    3  A    between atoms: O_2  and  C_9
REMARK    4  A    between atoms: O_3  and  C_14
REMARK    5  A    between atoms: C_5  and  C_11
REMARK    6  A    between atoms: C_12  and  C_14
REMARK                            x       y       z     vdW  Elec       q    Type
REMARK                         _______ _______ _______ _____ _____    ______ ____
ROOT
ATOM      1  C   UNL     1       3.251  -4.264  -8.471  0.00  0.00    +0.000 A 
ATOM      2  C   UNL     1       3.960  -3.934  -6.161  0.00  0.00    +0.000 A 
ATOM      3  C   UNL     1       4.251  -4.284  -7.485  0.00  0.00    +0.000 A 
ATOM      4  C   UNL     1       1.945  -3.914  -8.111  0.00  0.00    +0.000 A 
ATOM      5  C   UNL     1       2.647  -3.572  -5.832  0.00  0.00    +0.000 A 
ATOM      6  C   UNL     1       1.641  -3.563  -6.796  0.00  0.00    +0.000 A 
ENDROOT
BRANCH   2   7
ATOM      7  O   UNL     1       4.866  -3.918  -5.133  0.00  0.00    +0.000 OA
ATOM      8  C   UNL     1       6.061  -4.667  -5.298  0.00  0.00    +0.000 C 
ENDBRANCH   2   7
BRANCH   5   9
ATOM      9  O   UNL     1       2.351  -3.226  -4.539  0.00  0.00    +0.000 OA
ATOM     10  H   UNL     1       2.986  -3.653  -3.943  0.00  0.00    +0.000 HD
ENDBRANCH   5   9
BRANCH   1  11
ATOM     11  C   UNL     1       3.517  -4.649  -9.865  0.00  0.00    +0.000 C 
ATOM     12  C   UNL     1       3.748  -3.772 -10.853  0.00  0.00    +0.000 C 
BRANCH  12  14
ATOM     13  O   UNL     1       5.047  -4.314 -12.809  0.00  0.00    +0.000 OA
ATOM     14  C   UNL     1       3.987  -4.260 -12.216  0.00  0.00    +0.000 C 
BRANCH  14  15
ATOM     15  O   UNL     1       2.833  -4.664 -12.771  0.00  0.00    +0.000 OA
ATOM     16  H   UNL     1       2.282  -3.853 -12.779  0.00  0.00    +0.000 HD
ENDBRANCH  14  15
ENDBRANCH  12  14
ENDBRANCH   1  11
TORSDOF 5
ENDMDL
MODEL 2
REMARK VINA RESULT:    -6.166      1.867      2.988
REMARK INTER + INTRA:          -6.212
REMARK INTER:                  -6.015
REMARK INTRA:                  -0.197
REMARK UNBOUND:                 1.395
REMARK  Name = ferulic_minimized.pdb
REMARK  6 active torsions:
REMARK  status: ('A' for Active; 'I' for Inactive)
REMARK    1  A    between atoms: O_1  and  C_6
REMARK    2  A    between atoms: O_1  and  C_13
REMARK    3  A    between atoms: O_2  and  C_9
REMARK    4  A    between atoms: O_3  and  C_14
REMARK    5  A    between atoms: C_5  and  C_11
REMARK    6  A    between atoms: C_12  and  C_14
REMARK                            x       y       z     vdW  Elec       q    Type
REMARK                         _______ _______ _______ _____ _____    ______ ____
ROOT
ATOM      1  C   UNL     1       4.548  -3.486  -9.100  0.00  0.00    +0.000 A 
ATOM      2  C   UNL     1       3.736  -3.779  -6.818  0.00  0.00    +0.000 A 
ATOM      3  C   UNL     1       3.520  -3.391  -8.146  0.00  0.00    +0.000 A 
ATOM      4  C   UNL     1       5.807  -3.949  -8.702  0.00  0.00    +0.000 A 
ATOM      5  C   UNL     1       5.003  -4.254  -6.452  0.00  0.00    +0.000 A 
ATOM      6  C   UNL     1       6.036  -4.339  -7.382  0.00  0.00    +0.000 A 
ENDROOT
BRANCH   2   7
ATOM      7  O   UNL     1       2.799  -3.729  -5.821  0.00  0.00    +0.000 OA
ATOM      8  C   UNL     1       1.642  -2.936  -6.045  0.00  0.00    +0.000 C 
ENDBRANCH   2   7
BRANCH   5   9
ATOM      9  O   UNL     1       5.224  -4.638  -5.155  0.00  0.00    +0.000 OA
ATOM     10  H   UNL     1       5.480  -5.573  -5.139  0.00  0.00    +0.000 HD
ENDBRANCH   5   9
BRANCH   1  11
ATOM     11  C   UNL     1       4.362  -3.064 -10.496  0.00  0.00    +0.000 C 
ATOM     12  C   UNL     1       4.660  -1.840 -10.953  0.00  0.00    +0.000 C 
BRANCH  12  14
ATOM     13  O   UNL     1       4.059  -0.450 -12.829  0.00  0.00    +0.000 OA
ATOM     14  C   UNL     1       4.421  -1.513 -12.365  0.00  0.00    +0.000 C 
BRANCH  14  15
ATOM     15  O   UNL     1       4.661  -2.588 -13.133  0.00  0.00    +0.000 OA
ATOM     16  H   UNL     1       3.929  -3.201 -12.912  0.00  0.00    +0.000 HD
ENDBRANCH  14  15
ENDBRANCH  12  14
ENDBRANCH   1  11
TORSDOF 5
ENDMDL
MODEL 3
REMARK VINA RESULT:    -6.094      2.041      5.707
REMARK INTER + INTRA:          -6.124
REMARK INTER:                  -5.929
REMARK INTRA:                  -0.195
REMARK UNBOUND:                 1.395
REMARK  Name = ferulic_minimized.pdb
REMARK  6 active torsions:
REMARK  status: ('A' for Active; 'I' for Inactive)
REMARK    1  A    between atoms: O_1  and  C_6
REMARK    2  A    between atoms: O_1  and  C_13
REMARK    3  A    between atoms: O_2  and  C_9
REMARK    4  A    between atoms: O_3  and  C_14
REMARK    5  A    between atoms: C_5  and  C_11
REMARK    6  A    between atoms: C_12  and  C_14
REMARK                            x       y       z     vdW  Elec       q    Type
REMARK                         _______ _______ _______ _____ _____    ______ ____
ROOT
ATOM      1  C   UNL     1       3.582  -3.639  -8.153  0.00  0.00    +0.000 A 
ATOM      2  C   UNL     1       5.571  -2.980  -9.402  0.00  0.00    +0.000 A 
ATOM      3  C   UNL     1       4.793  -2.932  -8.238  0.00  0.00    +0.000 A 
ATOM      4  C   UNL     1       3.143  -4.376  -9.259  0.00  0.00    +0.000 A 
ATOM      5  C   UNL     1       5.114  -3.738 -10.488  0.00  0.00    +0.000 A 
ATOM      6  C   UNL     1       3.908  -4.432 -10.424  0.00  0.00    +0.000 A 
ENDROOT
BRANCH   2   7
ATOM      7  O   UNL     1       6.765  -2.331  -9.578  0.00  0.00    +0.000 OA
ATOM      8  C   UNL     1       6.775  -0.919  -9.421  0.00  0.00    +0.000 C 
ENDBRANCH   2   7
BRANCH   5   9
ATOM      9  O   UNL     1       5.869  -3.793 -11.631  0.00  0.00    +0.000 OA
ATOM     10  H   UNL     1       5.738  -2.977 -12.137  0.00  0.00    +0.000 HD
ENDBRANCH   5   9
BRANCH   1  11
ATOM     11  C   UNL     1       2.730  -3.591  -6.956  0.00  0.00    +0.000 C 
ATOM     12  C   UNL     1       3.151  -3.172  -5.754  0.00  0.00    +0.000 C 
BRANCH  12  14
ATOM     13  O   UNL     1       1.638  -4.131  -4.142  0.00  0.00    +0.000 OA
ATOM     14  C   UNL     1       2.223  -3.178  -4.616  0.00  0.00    +0.000 C 
BRANCH  14  15
ATOM     15  O   UNL     1       2.083  -1.934  -4.130  0.00  0.00    +0.000 OA
ATOM     16  H   UNL     1       1.994  -2.070  -3.164  0.00  0.00    +0.000 HD
ENDBRANCH  14  15
ENDBRANCH  12  14
ENDBRANCH   1  11
TORSDOF 5
ENDMDL
MODEL 4
REMARK VINA RESULT:    -6.082      3.815      5.411
REMARK INTER + INTRA:          -6.110
REMARK INTER:                  -5.914
REMARK INTRA:                  -0.196
REMARK UNBOUND:                 1.395
REMARK  Name = ferulic_minimized.pdb
REMARK  6 active torsions:
REMARK  status: ('A' for Active; 'I' for Inactive)
REMARK    1  A    between atoms: O_1  and  C_6
REMARK    2  A    between atoms: O_1  and  C_13
REMARK    3  A    between atoms: O_2  and  C_9
REMARK    4  A    between atoms: O_3  and  C_14
REMARK    5  A    between atoms: C_5  and  C_11
REMARK    6  A    between atoms: C_12  and  C_14
REMARK                            x       y       z     vdW  Elec       q    Type
REMARK                         _______ _______ _______ _____ _____    ______ ____
ROOT
ATOM      1  C   UNL     1       5.606  -2.501  -9.645  0.00  0.00    +0.000 A 
ATOM      2  C   UNL     1       3.670  -3.674 -10.554  0.00  0.00    +0.000 A 
ATOM      3  C   UNL     1       4.849  -2.941 -10.743  0.00  0.00    +0.000 A 
ATOM      4  C   UNL     1       5.155  -2.779  -8.349  0.00  0.00    +0.000 A 
ATOM      5  C   UNL     1       3.251  -3.952  -9.246  0.00  0.00    +0.000 A 
ATOM      6  C   UNL     1       3.983  -3.508  -8.147  0.00  0.00    +0.000 A 
ENDROOT
BRANCH   2   7
ATOM      7  O   UNL     1       2.869  -4.150 -11.558  0.00  0.00    +0.000 OA
ATOM      8  C   UNL     1       3.504  -4.622 -12.738  0.00  0.00    +0.000 C 
ENDBRANCH   2   7
BRANCH   5   9
ATOM      9  O   UNL     1       2.100  -4.670  -9.050  0.00  0.00    +0.000 OA
ATOM     10  H   UNL     1       1.439  -4.101  -8.627  0.00  0.00    +0.000 HD
ENDBRANCH   5   9
BRANCH   1  11
ATOM     11  C   UNL     1       6.833  -1.709  -9.808  0.00  0.00    +0.000 C 
ATOM     12  C   UNL     1       6.950  -0.425  -9.437  0.00  0.00    +0.000 C 
BRANCH  12  14
ATOM     13  O   UNL     1       9.337  -0.096  -9.377  0.00  0.00    +0.000 OA
ATOM     14  C   UNL     1       8.218   0.283  -9.658  0.00  0.00    +0.000 C 
BRANCH  14  15
ATOM     15  O   UNL     1       7.986   1.470 -10.241  0.00  0.00    +0.000 OA
ATOM     16  H   UNL     1       8.623   1.493 -10.985  0.00  0.00    +0.000 HD
ENDBRANCH  14  15
ENDBRANCH  12  14
ENDBRANCH   1  11
TORSDOF 5
ENDMDL
MODEL 5
REMARK VINA RESULT:    -5.973      3.802      4.669
REMARK INTER + INTRA:          -5.974
REMARK INTER:                  -5.885
REMARK INTRA:                  -0.089
REMARK UNBOUND:                 1.395
REMARK  Name = ferulic_minimized.pdb
REMARK  6 active torsions:
REMARK  status: ('A' for Active; 'I' for Inactive)
REMARK    1  A    between atoms: O_1  and  C_6
REMARK    2  A    between atoms: O_1  and  C_13
REMARK    3  A    between atoms: O_2  and  C_9
REMARK    4  A    between atoms: O_3  and  C_14
REMARK    5  A    between atoms: C_5  and  C_11
REMARK    6  A    between atoms: C_12  and  C_14
REMARK                            x       y       z     vdW  Elec       q    Type
REMARK                         _______ _______ _______ _____ _____    ______ ____
ROOT
ATOM      1  C   UNL     1       5.528  -2.490  -9.532  0.00  0.00    +0.000 A 
ATOM      2  C   UNL     1       3.992  -3.760  -8.125  0.00  0.00    +0.000 A 
ATOM      3  C   UNL     1       5.176  -3.029  -8.283  0.00  0.00    +0.000 A 
ATOM      4  C   UNL     1       4.692  -2.715 -10.632  0.00  0.00    +0.000 A 
ATOM      5  C   UNL     1       3.167  -3.957  -9.241  0.00  0.00    +0.000 A 
ATOM      6  C   UNL     1       3.510  -3.442 -10.489  0.00  0.00    +0.000 A 
ENDROOT
BRANCH   2   7
ATOM      7  O   UNL     1       3.562  -4.319  -6.950  0.00  0.00    +0.000 OA
ATOM      8  C   UNL     1       2.728  -3.530  -6.114  0.00  0.00    +0.000 C 
ENDBRANCH   2   7
BRANCH   5   9
ATOM      9  O   UNL     1       2.005  -4.670  -9.097  0.00  0.00    +0.000 OA
ATOM     10  H   UNL     1       2.219  -5.570  -8.806  0.00  0.00    +0.000 HD
ENDBRANCH   5   9
BRANCH   1  11
ATOM     11  C   UNL     1       6.774  -1.739  -9.738  0.00  0.00    +0.000 C 
ATOM     12  C   UNL     1       6.924  -0.441  -9.435  0.00  0.00    +0.000 C 
BRANCH  12  14
ATOM     13  O   UNL     1       9.321  -0.193  -9.442  0.00  0.00    +0.000 OA
ATOM     14  C   UNL     1       8.208   0.222  -9.695  0.00  0.00    +0.000 C 
BRANCH  14  15
ATOM     15  O   UNL     1       8.001   1.414 -10.277  0.00  0.00    +0.000 OA
ATOM     16  H   UNL     1       7.179   1.281 -10.794  0.00  0.00    +0.000 HD
ENDBRANCH  14  15
ENDBRANCH  12  14
ENDBRANCH   1  11
TORSDOF 5
ENDMDL
MODEL 6
REMARK VINA RESULT:    -3.782      2.616      5.900
REMARK INTER + INTRA:          -3.271
REMARK INTER:                  -3.085
REMARK INTRA:                  -0.186
REMARK UNBOUND:                 1.395
REMARK  Name = ferulic_minimized.pdb
REMARK  6 active torsions:
REMARK  status: ('A' for Active; 'I' for Inactive)
REMARK    1  A    between atoms: O_1  and  C_6
REMARK    2  A    between atoms: O_1  and  C_13
REMARK    3  A    between atoms: O_2  and  C_9
REMARK    4  A    between atoms: O_3  and  C_14
REMARK    5  A    between atoms: C_5  and  C_11
REMARK    6  A    between atoms: C_12  and  C_14
REMARK                            x       y       z     vdW  Elec       q    Type
REMARK                         _______ _______ _______ _____ _____    ______ ____
ROOT
ATOM      1  C   UNL     1       4.672  -3.188  -8.775  0.00  0.00    +0.000 A 
ATOM      2  C   UNL     1       5.660  -1.445 -10.167  0.00  0.00    +0.000 A 
ATOM      3  C   UNL     1       5.547  -2.101  -8.934  0.00  0.00    +0.000 A 
ATOM      4  C   UNL     1       3.887  -3.598  -9.859  0.00  0.00    +0.000 A 
ATOM      5  C   UNL     1       4.873  -1.887 -11.240  0.00  0.00    +0.000 A 
ATOM      6  C   UNL     1       3.990  -2.954 -11.092  0.00  0.00    +0.000 A 
ENDROOT
BRANCH   2   7
ATOM      7  O   UNL     1       6.486  -0.383 -10.422  0.00  0.00    +0.000 OA
ATOM      8  C   UNL     1       7.308   0.080  -9.360  0.00  0.00    +0.000 C 
ENDBRANCH   2   7
BRANCH   5   9
ATOM      9  O   UNL     1       4.977  -1.254 -12.451  0.00  0.00    +0.000 OA
ATOM     10  H   UNL     1       5.908  -1.232 -12.720  0.00  0.00    +0.000 HD
ENDBRANCH   5   9
BRANCH   1  11
ATOM     11  C   UNL     1       4.512  -3.882  -7.489  0.00  0.00    +0.000 C 
ATOM     12  C   UNL     1       4.509  -3.263  -6.300  0.00  0.00    +0.000 C 
BRANCH  12  14
ATOM     13  O   UNL     1       3.366  -4.163  -4.379  0.00  0.00    +0.000 OA
ATOM     14  C   UNL     1       4.359  -4.050  -5.070  0.00  0.00    +0.000 C 
BRANCH  14  15
ATOM     15  O   UNL     1       5.513  -4.670  -4.776  0.00  0.00    +0.000 OA
ATOM     16  H   UNL     1       5.263  -5.309  -4.077  0.00  0.00    +0.000 HD
ENDBRANCH  14  15
ENDBRANCH  12  14
ENDBRANCH   1  11
TORSDOF 5
ENDMDL
