MODEL 1
REMARK VINA RESULT:    -9.101      0.000      0.000
REMARK INTER + INTRA:         -14.670
REMARK INTER:                 -12.943
REMARK INTRA:                  -1.727
REMARK UNBOUND:                -0.781
REMARK  Name = meth_amp_minimized.pdb
REMARK  10 active torsions:
REMARK  status: ('A' for Active; 'I' for Inactive)
REMARK    1  A    between atoms: C_7  and  C_9
REMARK    2  A    between atoms: C_10  and  C_11
REMARK    3  A    between atoms: C_11  and  O_13
REMARK    4  A    between atoms: O_13  and  P_14
REMARK    5  A    between atoms: P_14  and  O_17
REMARK    6  A    between atoms: O_17  and  C_18
REMARK    7  A    between atoms: C_18  and  C_19
REMARK    8  A    between atoms: C_20  and  O_35
REMARK    9  A    between atoms: C_21  and  O_34
REMARK   10  A    between atoms: C_22  and  N_24
REMARK                            x       y       z     vdW  Elec       q    Type
REMARK                         _______ _______ _______ _____ _____    ______ ____
ROOT
ATOM      1  C   UNL     1      79.278  28.231   9.689  0.00  0.00    +0.000 C 
ATOM      2  C   UNL     1      80.255  29.392   9.888  0.00  0.00    +0.000 C 
ATOM      3  C   UNL     1      81.486  28.934   9.126  0.00  0.00    +0.000 C 
ATOM      4  C   UNL     1      81.458  27.431   9.415  0.00  0.00    +0.000 C 
ATOM      5  O   UNL     1      80.074  27.031   9.538  0.00  0.00    +0.000 OA
ENDROOT
BRANCH   4   6
ATOM      6  N   UNL     1      82.088  26.614   8.398  0.00  0.00    +0.000 N 
ATOM      7  C   UNL     1      81.789  26.593   7.059  0.00  0.00    +0.000 A 
ATOM      8  N   UNL     1      82.520  25.715   6.402  0.00  0.00    +0.000 NA
ATOM      9  C   UNL     1      83.335  25.151   7.363  0.00  0.00    +0.000 A 
ATOM     10  C   UNL     1      84.318  24.151   7.296  0.00  0.00    +0.000 A 
ATOM     11  N   UNL     1      84.931  23.764   8.438  0.00  0.00    +0.000 NA
ATOM     12  C   UNL     1      84.582  24.387   9.586  0.00  0.00    +0.000 A 
ATOM     13  N   UNL     1      83.663  25.353   9.774  0.00  0.00    +0.000 NA
ATOM     14  C   UNL     1      83.074  25.689   8.613  0.00  0.00    +0.000 A 
ATOM     15  N   UNL     1      84.671  23.512   6.111  0.00  0.00    +0.000 N 
ATOM     16  H   UNL     1      85.041  22.589   6.280  0.00  0.00    +0.000 HD
ATOM     17  H   UNL     1      83.962  23.619   5.392  0.00  0.00    +0.000 HD
ENDBRANCH   4   6
BRANCH   3  18
ATOM     18  O   UNL     1      82.673  29.561   9.624  0.00  0.00    +0.000 OA
ATOM     19  H   UNL     1      82.978  28.976  10.348  0.00  0.00    +0.000 HD
ENDBRANCH   3  18
BRANCH   2  20
ATOM     20  O   UNL     1      80.626  29.495  11.286  0.00  0.00    +0.000 OA
ATOM     21  H   UNL     1      80.017  28.897  11.759  0.00  0.00    +0.000 HD
ENDBRANCH   2  20
BRANCH   1  22
ATOM     22  C   UNL     1      78.369  28.368   8.470  0.00  0.00    +0.000 C 
BRANCH  22  23
ATOM     23  O   UNL     1      78.456  27.203   7.672  0.00  0.00    +0.000 OA
BRANCH  23  24
ATOM     24  P   UNL     1      77.238  27.026   6.602  0.00  0.00    +0.000 P 
ATOM     25  O   UNL     1      76.128  26.372   7.385  0.00  0.00    +0.000 OA
ATOM     26  O   UNL     1      77.087  28.356   5.914  0.00  0.00    +0.000 OA
BRANCH  24  27
ATOM     27  O   UNL     1      77.955  25.963   5.637  0.00  0.00    +0.000 OA
BRANCH  27  28
ATOM     28  C   UNL     1      77.484  25.635   4.434  0.00  0.00    +0.000 C 
ATOM     29  O   UNL     1      76.328  25.618   4.040  0.00  0.00    +0.000 OA
BRANCH  28  31
ATOM     30  C   UNL     1      79.851  25.696   3.620  0.00  0.00    +0.000 C 
ATOM     31  C   UNL     1      78.590  25.246   3.524  0.00  0.00    +0.000 C 
BRANCH  30  38
ATOM     32  C   UNL     1      83.349  25.193  -1.079  0.00  0.00    +0.000 C 
ATOM     33  O   UNL     1      82.185  25.949  -0.688  0.00  0.00    +0.000 OA
ATOM     34  C   UNL     1      81.992  25.486   0.575  0.00  0.00    +0.000 A 
ATOM     35  C   UNL     1      82.925  24.542   0.936  0.00  0.00    +0.000 A 
ATOM     36  C   UNL     1      82.902  23.939   2.173  0.00  0.00    +0.000 A 
ATOM     37  C   UNL     1      81.893  24.322   3.065  0.00  0.00    +0.000 A 
ATOM     38  C   UNL     1      80.938  25.302   2.711  0.00  0.00    +0.000 A 
ATOM     39  C   UNL     1      80.987  25.881   1.434  0.00  0.00    +0.000 A 
ATOM     40  O   UNL     1      83.823  24.296  -0.054  0.00  0.00    +0.000 OA
ENDBRANCH  30  38
ENDBRANCH  28  31
ENDBRANCH  27  28
ENDBRANCH  24  27
ENDBRANCH  23  24
ENDBRANCH  22  23
ENDBRANCH   1  22
TORSDOF 10
ENDMDL
MODEL 2
REMARK VINA RESULT:    -8.965      3.240      5.532
REMARK INTER + INTRA:         -14.463
REMARK INTER:                 -13.490
REMARK INTRA:                  -0.973
REMARK UNBOUND:                -0.781
REMARK  Name = meth_amp_minimized.pdb
REMARK  10 active torsions:
REMARK  status: ('A' for Active; 'I' for Inactive)
REMARK    1  A    between atoms: C_7  and  C_9
REMARK    2  A    between atoms: C_10  and  C_11
REMARK    3  A    between atoms: C_11  and  O_13
REMARK    4  A    between atoms: O_13  and  P_14
REMARK    5  A    between atoms: P_14  and  O_17
REMARK    6  A    between atoms: O_17  and  C_18
REMARK    7  A    between atoms: C_18  and  C_19
REMARK    8  A    between atoms: C_20  and  O_35
REMARK    9  A    between atoms: C_21  and  O_34
REMARK   10  A    between atoms: C_22  and  N_24
REMARK                            x       y       z     vdW  Elec       q    Type
REMARK                         _______ _______ _______ _____ _____    ______ ____
ROOT
ATOM      1  C   UNL     1      80.783  29.415   9.328  0.00  0.00    +0.000 C 
ATOM      2  C   UNL     1      80.095  29.259  10.685  0.00  0.00    +0.000 C 
ATOM      3  C   UNL     1      78.835  28.484  10.340  0.00  0.00    +0.000 C 
ATOM      4  C   UNL     1      78.495  29.086   8.975  0.00  0.00    +0.000 C 
ATOM      5  O   UNL     1      79.738  29.439   8.326  0.00  0.00    +0.000 OA
ENDROOT
BRANCH   4   6
ATOM      6  N   UNL     1      77.749  28.205   8.101  0.00  0.00    +0.000 N 
ATOM      7  C   UNL     1      76.407  27.926   8.165  0.00  0.00    +0.000 A 
ATOM      8  N   UNL     1      76.037  27.057   7.246  0.00  0.00    +0.000 NA
ATOM      9  C   UNL     1      77.194  26.771   6.551  0.00  0.00    +0.000 A 
ATOM     10  C   UNL     1      77.458  25.913   5.470  0.00  0.00    +0.000 A 
ATOM     11  N   UNL     1      78.729  25.803   5.023  0.00  0.00    +0.000 NA
ATOM     12  C   UNL     1      79.680  26.553   5.623  0.00  0.00    +0.000 A 
ATOM     13  N   UNL     1      79.550  27.406   6.657  0.00  0.00    +0.000 NA
ATOM     14  C   UNL     1      78.272  27.467   7.073  0.00  0.00    +0.000 A 
ATOM     15  N   UNL     1      76.475  25.142   4.858  0.00  0.00    +0.000 N 
ATOM     16  H   UNL     1      76.862  24.315   4.427  0.00  0.00    +0.000 HD
ATOM     17  H   UNL     1      75.652  25.034   5.442  0.00  0.00    +0.000 HD
ENDBRANCH   4   6
BRANCH   3  18
ATOM     18  O   UNL     1      77.803  28.708  11.306  0.00  0.00    +0.000 OA
ATOM     19  H   UNL     1      78.279  28.855  12.149  0.00  0.00    +0.000 HD
ENDBRANCH   3  18
BRANCH   2  20
ATOM     20  O   UNL     1      79.681  30.555  11.186  0.00  0.00    +0.000 OA
ATOM     21  H   UNL     1      80.342  30.792  11.864  0.00  0.00    +0.000 HD
ENDBRANCH   2  20
BRANCH   1  22
ATOM     22  C   UNL     1      81.765  28.299   8.981  0.00  0.00    +0.000 C 
BRANCH  22  23
ATOM     23  O   UNL     1      83.083  28.702   9.297  0.00  0.00    +0.000 OA
BRANCH  23  24
ATOM     24  P   UNL     1      84.243  27.672   8.793  0.00  0.00    +0.000 P 
ATOM     25  O   UNL     1      84.392  27.947   7.319  0.00  0.00    +0.000 OA
ATOM     26  O   UNL     1      85.377  27.804   9.773  0.00  0.00    +0.000 OA
BRANCH  24  27
ATOM     27  O   UNL     1      83.435  26.306   9.037  0.00  0.00    +0.000 OA
BRANCH  27  28
ATOM     28  C   UNL     1      83.967  25.099   8.847  0.00  0.00    +0.000 C 
ATOM     29  O   UNL     1      84.716  24.466   9.577  0.00  0.00    +0.000 OA
BRANCH  28  31
ATOM     30  C   UNL     1      84.315  24.456   6.453  0.00  0.00    +0.000 C 
ATOM     31  C   UNL     1      83.537  24.533   7.544  0.00  0.00    +0.000 C 
BRANCH  30  38
ATOM     32  C   UNL     1      81.564  23.621   1.325  0.00  0.00    +0.000 C 
ATOM     33  O   UNL     1      81.615  24.623   2.360  0.00  0.00    +0.000 OA
ATOM     34  C   UNL     1      82.511  24.061   3.215  0.00  0.00    +0.000 A 
ATOM     35  C   UNL     1      82.966  22.842   2.771  0.00  0.00    +0.000 A 
ATOM     36  C   UNL     1      83.873  22.102   3.495  0.00  0.00    +0.000 A 
ATOM     37  C   UNL     1      84.327  22.634   4.708  0.00  0.00    +0.000 A 
ATOM     38  C   UNL     1      83.877  23.892   5.168  0.00  0.00    +0.000 A 
ATOM     39  C   UNL     1      82.941  24.609   4.406  0.00  0.00    +0.000 A 
ATOM     40  O   UNL     1      82.417  22.486   1.579  0.00  0.00    +0.000 OA
ENDBRANCH  30  38
ENDBRANCH  28  31
ENDBRANCH  27  28
ENDBRANCH  24  27
ENDBRANCH  23  24
ENDBRANCH  22  23
ENDBRANCH   1  22
TORSDOF 10
ENDMDL
MODEL 3
REMARK VINA RESULT:    -8.811      4.841      7.810
REMARK INTER + INTRA:         -14.227
REMARK INTER:                 -13.904
REMARK INTRA:                  -0.323
REMARK UNBOUND:                -0.781
REMARK  Name = meth_amp_minimized.pdb
REMARK  10 active torsions:
REMARK  status: ('A' for Active; 'I' for Inactive)
REMARK    1  A    between atoms: C_7  and  C_9
REMARK    2  A    between atoms: C_10  and  C_11
REMARK    3  A    between atoms: C_11  and  O_13
REMARK    4  A    between atoms: O_13  and  P_14
REMARK    5  A    between atoms: P_14  and  O_17
REMARK    6  A    between atoms: O_17  and  C_18
REMARK    7  A    between atoms: C_18  and  C_19
REMARK    8  A    between atoms: C_20  and  O_35
REMARK    9  A    between atoms: C_21  and  O_34
REMARK   10  A    between atoms: C_22  and  N_24
REMARK                            x       y       z     vdW  Elec       q    Type
REMARK                         _______ _______ _______ _____ _____    ______ ____
ROOT
ATOM      1  C   UNL     1      80.655  29.547   9.663  0.00  0.00    +0.000 C 
ATOM      2  C   UNL     1      80.090  29.471  11.083  0.00  0.00    +0.000 C 
ATOM      3  C   UNL     1      78.706  28.884  10.867  0.00  0.00    +0.000 C 
ATOM      4  C   UNL     1      78.319  29.546   9.542  0.00  0.00    +0.000 C 
ATOM      5  O   UNL     1      79.529  29.729   8.771  0.00  0.00    +0.000 OA
ENDROOT
BRANCH   4   6
ATOM      6  N   UNL     1      77.374  28.789   8.748  0.00  0.00    +0.000 N 
ATOM      7  C   UNL     1      76.007  28.795   8.870  0.00  0.00    +0.000 A 
ATOM      8  N   UNL     1      75.430  27.970   8.019  0.00  0.00    +0.000 NA
ATOM      9  C   UNL     1      76.474  27.415   7.310  0.00  0.00    +0.000 A 
ATOM     10  C   UNL     1      76.512  26.461   6.279  0.00  0.00    +0.000 A 
ATOM     11  N   UNL     1      77.714  26.067   5.802  0.00  0.00    +0.000 NA
ATOM     12  C   UNL     1      78.822  26.639   6.325  0.00  0.00    +0.000 A 
ATOM     13  N   UNL     1      78.912  27.557   7.305  0.00  0.00    +0.000 NA
ATOM     14  C   UNL     1      77.692  27.902   7.755  0.00  0.00    +0.000 A 
ATOM     15  N   UNL     1      75.368  25.875   5.746  0.00  0.00    +0.000 N 
ATOM     16  H   UNL     1      75.561  24.964   5.358  0.00  0.00    +0.000 HD
ATOM     17  H   UNL     1      74.566  25.971   6.361  0.00  0.00    +0.000 HD
ENDBRANCH   4   6
BRANCH   3  18
ATOM     18  O   UNL     1      77.816  29.238  11.931  0.00  0.00    +0.000 OA
ATOM     19  H   UNL     1      77.664  30.199  11.819  0.00  0.00    +0.000 HD
ENDBRANCH   3  18
BRANCH   2  20
ATOM     20  O   UNL     1      79.914  30.806  11.621  0.00  0.00    +0.000 OA
ATOM     21  H   UNL     1      78.952  30.966  11.604  0.00  0.00    +0.000 HD
ENDBRANCH   2  20
BRANCH   1  22
ATOM     22  C   UNL     1      81.430  28.309   9.220  0.00  0.00    +0.000 C 
BRANCH  22  23
ATOM     23  O   UNL     1      82.820  28.572   9.260  0.00  0.00    +0.000 OA
BRANCH  23  24
ATOM     24  P   UNL     1      83.748  27.390   8.627  0.00  0.00    +0.000 P 
ATOM     25  O   UNL     1      82.869  26.166   8.626  0.00  0.00    +0.000 OA
ATOM     26  O   UNL     1      84.364  27.962   7.379  0.00  0.00    +0.000 OA
BRANCH  24  27
ATOM     27  O   UNL     1      84.829  27.311   9.812  0.00  0.00    +0.000 OA
BRANCH  27  28
ATOM     28  C   UNL     1      85.976  26.642   9.710  0.00  0.00    +0.000 C 
ATOM     29  O   UNL     1      87.121  27.065   9.769  0.00  0.00    +0.000 OA
BRANCH  28  31
ATOM     30  C   UNL     1      85.254  24.353  10.423  0.00  0.00    +0.000 C 
ATOM     31  C   UNL     1      85.724  25.195   9.490  0.00  0.00    +0.000 C 
BRANCH  30  38
ATOM     32  C   UNL     1      82.626  19.167   9.552  0.00  0.00    +0.000 C 
ATOM     33  O   UNL     1      82.241  20.549   9.700  0.00  0.00    +0.000 OA
ATOM     34  C   UNL     1      83.458  21.135   9.861  0.00  0.00    +0.000 A 
ATOM     35  C   UNL     1      84.488  20.226   9.823  0.00  0.00    +0.000 A 
ATOM     36  C   UNL     1      85.800  20.613   9.975  0.00  0.00    +0.000 A 
ATOM     37  C   UNL     1      86.058  21.976  10.166  0.00  0.00    +0.000 A 
ATOM     38  C   UNL     1      85.009  22.922  10.192  0.00  0.00    +0.000 A 
ATOM     39  C   UNL     1      83.683  22.484  10.048  0.00  0.00    +0.000 A 
ATOM     40  O   UNL     1      84.050  18.953   9.632  0.00  0.00    +0.000 OA
ENDBRANCH  30  38
ENDBRANCH  28  31
ENDBRANCH  27  28
ENDBRANCH  24  27
ENDBRANCH  23  24
ENDBRANCH  22  23
ENDBRANCH   1  22
TORSDOF 10
ENDMDL
MODEL 4
REMARK VINA RESULT:    -8.792      3.333      6.746
REMARK INTER + INTRA:         -14.198
REMARK INTER:                 -12.932
REMARK INTRA:                  -1.266
REMARK UNBOUND:                -0.781
REMARK  Name = meth_amp_minimized.pdb
REMARK  10 active torsions:
REMARK  status: ('A' for Active; 'I' for Inactive)
REMARK    1  A    between atoms: C_7  and  C_9
REMARK    2  A    between atoms: C_10  and  C_11
REMARK    3  A    between atoms: C_11  and  O_13
REMARK    4  A    between atoms: O_13  and  P_14
REMARK    5  A    between atoms: P_14  and  O_17
REMARK    6  A    between atoms: O_17  and  C_18
REMARK    7  A    between atoms: C_18  and  C_19
REMARK    8  A    between atoms: C_20  and  O_35
REMARK    9  A    between atoms: C_21  and  O_34
REMARK   10  A    between atoms: C_22  and  N_24
REMARK                            x       y       z     vdW  Elec       q    Type
REMARK                         _______ _______ _______ _____ _____    ______ ____
ROOT
ATOM      1  C   UNL     1      77.704  28.720   7.404  0.00  0.00    +0.000 C 
ATOM      2  C   UNL     1      76.776  27.689   8.050  0.00  0.00    +0.000 C 
ATOM      3  C   UNL     1      76.866  26.508   7.100  0.00  0.00    +0.000 C 
ATOM      4  C   UNL     1      76.972  27.231   5.755  0.00  0.00    +0.000 C 
ATOM      5  O   UNL     1      77.677  28.474   5.977  0.00  0.00    +0.000 OA
ENDROOT
BRANCH   4   6
ATOM      6  N   UNL     1      77.663  26.483   4.726  0.00  0.00    +0.000 N 
ATOM      7  C   UNL     1      77.103  25.896   3.620  0.00  0.00    +0.000 A 
ATOM      8  N   UNL     1      77.997  25.259   2.891  0.00  0.00    +0.000 NA
ATOM      9  C   UNL     1      79.191  25.453   3.555  0.00  0.00    +0.000 A 
ATOM     10  C   UNL     1      80.499  25.016   3.290  0.00  0.00    +0.000 A 
ATOM     11  N   UNL     1      81.480  25.331   4.166  0.00  0.00    +0.000 NA
ATOM     12  C   UNL     1      81.151  26.081   5.242  0.00  0.00    +0.000 A 
ATOM     13  N   UNL     1      79.943  26.557   5.599  0.00  0.00    +0.000 NA
ATOM     14  C   UNL     1      79.003  26.203   4.704  0.00  0.00    +0.000 A 
ATOM     15  N   UNL     1      80.830  24.243   2.181  0.00  0.00    +0.000 N 
ATOM     16  H   UNL     1      81.652  23.682   2.348  0.00  0.00    +0.000 HD
ATOM     17  H   UNL     1      80.018  23.789   1.774  0.00  0.00    +0.000 HD
ENDBRANCH   4   6
BRANCH   3  18
ATOM     18  O   UNL     1      75.700  25.682   7.183  0.00  0.00    +0.000 OA
ATOM     19  H   UNL     1      75.434  25.533   6.252  0.00  0.00    +0.000 HD
ENDBRANCH   3  18
BRANCH   2  20
ATOM     20  O   UNL     1      75.406  28.165   8.021  0.00  0.00    +0.000 OA
ATOM     21  H   UNL     1      75.433  29.052   8.426  0.00  0.00    +0.000 HD
ENDBRANCH   2  20
BRANCH   1  22
ATOM     22  C   UNL     1      79.152  28.660   7.882  0.00  0.00    +0.000 C 
BRANCH  22  23
ATOM     23  O   UNL     1      79.229  29.060   9.236  0.00  0.00    +0.000 OA
BRANCH  23  24
ATOM     24  P   UNL     1      80.498  28.440  10.052  0.00  0.00    +0.000 P 
ATOM     25  O   UNL     1      80.877  29.507  11.047  0.00  0.00    +0.000 OA
ATOM     26  O   UNL     1      80.098  27.046  10.453  0.00  0.00    +0.000 OA
BRANCH  24  27
ATOM     27  O   UNL     1      81.539  28.405   8.831  0.00  0.00    +0.000 OA
BRANCH  27  28
ATOM     28  C   UNL     1      82.787  27.950   8.948  0.00  0.00    +0.000 C 
ATOM     29  O   UNL     1      83.795  28.552   9.285  0.00  0.00    +0.000 OA
BRANCH  28  31
ATOM     30  C   UNL     1      83.488  25.576   9.322  0.00  0.00    +0.000 C 
ATOM     31  C   UNL     1      82.858  26.511   8.593  0.00  0.00    +0.000 C 
BRANCH  30  38
ATOM     32  C   UNL     1      82.866  19.730   9.358  0.00  0.00    +0.000 C 
ATOM     33  O   UNL     1      82.449  20.854  10.158  0.00  0.00    +0.000 OA
ATOM     34  C   UNL     1      83.005  21.882   9.463  0.00  0.00    +0.000 A 
ATOM     35  C   UNL     1      83.697  21.452   8.355  0.00  0.00    +0.000 A 
ATOM     36  C   UNL     1      84.343  22.335   7.519  0.00  0.00    +0.000 A 
ATOM     37  C   UNL     1      84.271  23.698   7.831  0.00  0.00    +0.000 A 
ATOM     38  C   UNL     1      83.551  24.153   8.958  0.00  0.00    +0.000 A 
ATOM     39  C   UNL     1      82.918  23.219   9.793  0.00  0.00    +0.000 A 
ATOM     40  O   UNL     1      83.661  20.101   8.213  0.00  0.00    +0.000 OA
ENDBRANCH  30  38
ENDBRANCH  28  31
ENDBRANCH  27  28
ENDBRANCH  24  27
ENDBRANCH  23  24
ENDBRANCH  22  23
ENDBRANCH   1  22
TORSDOF 10
ENDMDL
MODEL 5
REMARK VINA RESULT:    -8.536      3.940      7.078
REMARK INTER + INTRA:         -13.807
REMARK INTER:                 -11.917
REMARK INTRA:                  -1.890
REMARK UNBOUND:                -0.781
REMARK  Name = meth_amp_minimized.pdb
REMARK  10 active torsions:
REMARK  status: ('A' for Active; 'I' for Inactive)
REMARK    1  A    between atoms: C_7  and  C_9
REMARK    2  A    between atoms: C_10  and  C_11
REMARK    3  A    between atoms: C_11  and  O_13
REMARK    4  A    between atoms: O_13  and  P_14
REMARK    5  A    between atoms: P_14  and  O_17
REMARK    6  A    between atoms: O_17  and  C_18
REMARK    7  A    between atoms: C_18  and  C_19
REMARK    8  A    between atoms: C_20  and  O_35
REMARK    9  A    between atoms: C_21  and  O_34
REMARK   10  A    between atoms: C_22  and  N_24
REMARK                            x       y       z     vdW  Elec       q    Type
REMARK                         _______ _______ _______ _____ _____    ______ ____
ROOT
ATOM      1  C   UNL     1      86.921  24.622  10.406  0.00  0.00    +0.000 C 
ATOM      2  C   UNL     1      87.226  24.451   8.916  0.00  0.00    +0.000 C 
ATOM      3  C   UNL     1      86.054  23.622   8.422  0.00  0.00    +0.000 C 
ATOM      4  C   UNL     1      85.821  22.710   9.628  0.00  0.00    +0.000 C 
ATOM      5  O   UNL     1      86.170  23.454  10.818  0.00  0.00    +0.000 OA
ENDROOT
BRANCH   4   6
ATOM      6  N   UNL     1      84.460  22.232   9.763  0.00  0.00    +0.000 N 
ATOM      7  C   UNL     1      83.533  22.643  10.687  0.00  0.00    +0.000 A 
ATOM      8  N   UNL     1      82.394  21.990  10.569  0.00  0.00    +0.000 NA
ATOM      9  C   UNL     1      82.595  21.126   9.512  0.00  0.00    +0.000 A 
ATOM     10  C   UNL     1      81.767  20.164   8.910  0.00  0.00    +0.000 A 
ATOM     11  N   UNL     1      82.266  19.418   7.899  0.00  0.00    +0.000 NA
ATOM     12  C   UNL     1      83.535  19.661   7.499  0.00  0.00    +0.000 A 
ATOM     13  N   UNL     1      84.417  20.550   7.993  0.00  0.00    +0.000 NA
ATOM     14  C   UNL     1      83.877  21.253   9.004  0.00  0.00    +0.000 A 
ATOM     15  N   UNL     1      80.463  19.918   9.329  0.00  0.00    +0.000 N 
ATOM     16  H   UNL     1      80.172  18.976   9.113  0.00  0.00    +0.000 HD
ATOM     17  H   UNL     1      80.287  20.269  10.265  0.00  0.00    +0.000 HD
ENDBRANCH   4   6
BRANCH   3  18
ATOM     18  O   UNL     1      86.395  22.887   7.242  0.00  0.00    +0.000 OA
ATOM     19  H   UNL     1      87.203  22.389   7.484  0.00  0.00    +0.000 HD
ENDBRANCH   3  18
BRANCH   2  20
ATOM     20  O   UNL     1      88.425  23.653   8.742  0.00  0.00    +0.000 OA
ATOM     21  H   UNL     1      88.926  23.757   9.572  0.00  0.00    +0.000 HD
ENDBRANCH   2  20
BRANCH   1  22
ATOM     22  C   UNL     1      86.109  25.868  10.750  0.00  0.00    +0.000 C 
BRANCH  22  23
ATOM     23  O   UNL     1      86.147  26.780   9.669  0.00  0.00    +0.000 OA
BRANCH  23  24
ATOM     24  P   UNL     1      84.686  27.154   9.050  0.00  0.00    +0.000 P 
ATOM     25  O   UNL     1      83.813  25.968   9.375  0.00  0.00    +0.000 OA
ATOM     26  O   UNL     1      84.379  28.552   9.514  0.00  0.00    +0.000 OA
BRANCH  24  27
ATOM     27  O   UNL     1      85.102  27.146   7.500  0.00  0.00    +0.000 OA
BRANCH  27  28
ATOM     28  C   UNL     1      84.498  26.387   6.586  0.00  0.00    +0.000 C 
ATOM     29  O   UNL     1      84.961  25.477   5.914  0.00  0.00    +0.000 OA
BRANCH  28  31
ATOM     30  C   UNL     1      82.069  25.930   6.185  0.00  0.00    +0.000 C 
ATOM     31  C   UNL     1      83.075  26.783   6.430  0.00  0.00    +0.000 C 
BRANCH  30  38
ATOM     32  C   UNL     1      76.571  27.688   7.299  0.00  0.00    +0.000 C 
ATOM     33  O   UNL     1      77.790  27.462   8.034  0.00  0.00    +0.000 OA
ATOM     34  C   UNL     1      78.622  27.067   7.033  0.00  0.00    +0.000 A 
ATOM     35  C   UNL     1      77.994  27.043   5.810  0.00  0.00    +0.000 A 
ATOM     36  C   UNL     1      78.658  26.663   4.665  0.00  0.00    +0.000 A 
ATOM     37  C   UNL     1      80.005  26.301   4.783  0.00  0.00    +0.000 A 
ATOM     38  C   UNL     1      80.664  26.335   6.032  0.00  0.00    +0.000 A 
ATOM     39  C   UNL     1      79.948  26.715   7.178  0.00  0.00    +0.000 A 
ATOM     40  O   UNL     1      76.691  27.422   5.887  0.00  0.00    +0.000 OA
ENDBRANCH  30  38
ENDBRANCH  28  31
ENDBRANCH  27  28
ENDBRANCH  24  27
ENDBRANCH  23  24
ENDBRANCH  22  23
ENDBRANCH   1  22
TORSDOF 10
ENDMDL
MODEL 6
REMARK VINA RESULT:    -8.357      2.098      7.513
REMARK INTER + INTRA:         -13.535
REMARK INTER:                 -12.281
REMARK INTRA:                  -1.254
REMARK UNBOUND:                -0.781
REMARK  Name = meth_amp_minimized.pdb
REMARK  10 active torsions:
REMARK  status: ('A' for Active; 'I' for Inactive)
REMARK    1  A    between atoms: C_7  and  C_9
REMARK    2  A    between atoms: C_10  and  C_11
REMARK    3  A    between atoms: C_11  and  O_13
REMARK    4  A    between atoms: O_13  and  P_14
REMARK    5  A    between atoms: P_14  and  O_17
REMARK    6  A    between atoms: O_17  and  C_18
REMARK    7  A    between atoms: C_18  and  C_19
REMARK    8  A    between atoms: C_20  and  O_35
REMARK    9  A    between atoms: C_21  and  O_34
REMARK   10  A    between atoms: C_22  and  N_24
REMARK                            x       y       z     vdW  Elec       q    Type
REMARK                         _______ _______ _______ _____ _____    ______ ____
ROOT
ATOM      1  C   UNL     1      82.723  24.275   2.411  0.00  0.00    +0.000 C 
ATOM      2  C   UNL     1      83.300  22.859   2.456  0.00  0.00    +0.000 C 
ATOM      3  C   UNL     1      83.567  22.648   3.936  0.00  0.00    +0.000 C 
ATOM      4  C   UNL     1      84.014  24.052   4.349  0.00  0.00    +0.000 C 
ATOM      5  O   UNL     1      83.304  25.002   3.521  0.00  0.00    +0.000 OA
ENDROOT
BRANCH   4   6
ATOM      6  N   UNL     1      83.768  24.375   5.739  0.00  0.00    +0.000 N 
ATOM      7  C   UNL     1      82.942  25.358   6.221  0.00  0.00    +0.000 A 
ATOM      8  N   UNL     1      82.961  25.420   7.538  0.00  0.00    +0.000 NA
ATOM      9  C   UNL     1      83.833  24.422   7.921  0.00  0.00    +0.000 A 
ATOM     10  C   UNL     1      84.284  23.996   9.181  0.00  0.00    +0.000 A 
ATOM     11  N   UNL     1      85.197  23.001   9.243  0.00  0.00    +0.000 NA
ATOM     12  C   UNL     1      85.609  22.445   8.081  0.00  0.00    +0.000 A 
ATOM     13  N   UNL     1      85.251  22.764   6.823  0.00  0.00    +0.000 NA
ATOM     14  C   UNL     1      84.355  23.767   6.817  0.00  0.00    +0.000 A 
ATOM     15  N   UNL     1      83.857  24.574  10.373  0.00  0.00    +0.000 N 
ATOM     16  H   UNL     1      84.544  24.469  11.106  0.00  0.00    +0.000 HD
ATOM     17  H   UNL     1      83.449  25.491  10.230  0.00  0.00    +0.000 HD
ENDBRANCH   4   6
BRANCH   3  18
ATOM     18  O   UNL     1      84.588  21.667   4.148  0.00  0.00    +0.000 OA
ATOM     19  H   UNL     1      84.578  21.502   5.114  0.00  0.00    +0.000 HD
ENDBRANCH   3  18
BRANCH   2  20
ATOM     20  O   UNL     1      84.580  22.820   1.776  0.00  0.00    +0.000 OA
ATOM     21  H   UNL     1      85.058  23.614   2.082  0.00  0.00    +0.000 HD
ENDBRANCH   2  20
BRANCH   1  22
ATOM     22  C   UNL     1      81.203  24.346   2.525  0.00  0.00    +0.000 C 
BRANCH  22  23
ATOM     23  O   UNL     1      80.838  25.303   3.502  0.00  0.00    +0.000 OA
BRANCH  23  24
ATOM     24  P   UNL     1      79.314  25.866   3.359  0.00  0.00    +0.000 P 
ATOM     25  O   UNL     1      79.454  27.180   2.634  0.00  0.00    +0.000 OA
ATOM     26  O   UNL     1      78.491  24.721   2.834  0.00  0.00    +0.000 OA
BRANCH  24  27
ATOM     27  O   UNL     1      79.028  26.106   4.920  0.00  0.00    +0.000 OA
BRANCH  27  28
ATOM     28  C   UNL     1      77.811  26.038   5.458  0.00  0.00    +0.000 C 
ATOM     29  O   UNL     1      76.802  25.511   5.014  0.00  0.00    +0.000 OA
BRANCH  28  31
ATOM     30  C   UNL     1      78.635  27.692   7.147  0.00  0.00    +0.000 C 
ATOM     31  C   UNL     1      77.776  26.733   6.770  0.00  0.00    +0.000 C 
BRANCH  30  38
ATOM     32  C   UNL     1      80.148  30.060  12.312  0.00  0.00    +0.000 C 
ATOM     33  O   UNL     1      80.803  29.429  11.192  0.00  0.00    +0.000 OA
ATOM     34  C   UNL     1      79.737  29.170  10.388  0.00  0.00    +0.000 A 
ATOM     35  C   UNL     1      78.549  29.585  10.941  0.00  0.00    +0.000 A 
ATOM     36  C   UNL     1      77.348  29.408  10.291  0.00  0.00    +0.000 A 
ATOM     37  C   UNL     1      77.373  28.790   9.036  0.00  0.00    +0.000 A 
ATOM     38  C   UNL     1      78.589  28.372   8.450  0.00  0.00    +0.000 A 
ATOM     39  C   UNL     1      79.790  28.558   9.152  0.00  0.00    +0.000 A 
ATOM     40  O   UNL     1      78.718  30.160  12.161  0.00  0.00    +0.000 OA
ENDBRANCH  30  38
ENDBRANCH  28  31
ENDBRANCH  27  28
ENDBRANCH  24  27
ENDBRANCH  23  24
ENDBRANCH  22  23
ENDBRANCH   1  22
TORSDOF 10
ENDMDL
MODEL 7
REMARK VINA RESULT:    -8.316      4.132      7.088
REMARK INTER + INTRA:         -13.472
REMARK INTER:                 -11.625
REMARK INTRA:                  -1.848
REMARK UNBOUND:                -0.781
REMARK  Name = meth_amp_minimized.pdb
REMARK  10 active torsions:
REMARK  status: ('A' for Active; 'I' for Inactive)
REMARK    1  A    between atoms: C_7  and  C_9
REMARK    2  A    between atoms: C_10  and  C_11
REMARK    3  A    between atoms: C_11  and  O_13
REMARK    4  A    between atoms: O_13  and  P_14
REMARK    5  A    between atoms: P_14  and  O_17
REMARK    6  A    between atoms: O_17  and  C_18
REMARK    7  A    between atoms: C_18  and  C_19
REMARK    8  A    between atoms: C_20  and  O_35
REMARK    9  A    between atoms: C_21  and  O_34
REMARK   10  A    between atoms: C_22  and  N_24
REMARK                            x       y       z     vdW  Elec       q    Type
REMARK                         _______ _______ _______ _____ _____    ______ ____
ROOT
ATOM      1  C   UNL     1      84.705  21.666   8.611  0.00  0.00    +0.000 C 
ATOM      2  C   UNL     1      83.332  21.826   9.265  0.00  0.00    +0.000 C 
ATOM      3  C   UNL     1      83.481  23.112  10.058  0.00  0.00    +0.000 C 
ATOM      4  C   UNL     1      84.935  22.994  10.522  0.00  0.00    +0.000 C 
ATOM      5  O   UNL     1      85.669  22.285   9.497  0.00  0.00    +0.000 OA
ENDROOT
BRANCH   4   6
ATOM      6  N   UNL     1      85.589  24.262  10.768  0.00  0.00    +0.000 N 
ATOM      7  C   UNL     1      85.109  25.509  10.457  0.00  0.00    +0.000 A 
ATOM      8  N   UNL     1      85.960  26.462  10.781  0.00  0.00    +0.000 NA
ATOM      9  C   UNL     1      87.034  25.797  11.336  0.00  0.00    +0.000 A 
ATOM     10  C   UNL     1      88.257  26.251  11.858  0.00  0.00    +0.000 A 
ATOM     11  N   UNL     1      89.154  25.340  12.298  0.00  0.00    +0.000 NA
ATOM     12  C   UNL     1      88.811  24.033  12.240  0.00  0.00    +0.000 A 
ATOM     13  N   UNL     1      87.677  23.481  11.766  0.00  0.00    +0.000 NA
ATOM     14  C   UNL     1      86.828  24.427  11.328  0.00  0.00    +0.000 A 
ATOM     15  N   UNL     1      88.604  27.597  11.914  0.00  0.00    +0.000 N 
ATOM     16  H   UNL     1      89.605  27.725  11.904  0.00  0.00    +0.000 HD
ATOM     17  H   UNL     1      88.044  28.164  11.286  0.00  0.00    +0.000 HD
ENDBRANCH   4   6
BRANCH   3  18
ATOM     18  O   UNL     1      82.562  23.158  11.155  0.00  0.00    +0.000 OA
ATOM     19  H   UNL     1      82.165  22.264  11.185  0.00  0.00    +0.000 HD
ENDBRANCH   3  18
BRANCH   2  20
ATOM     20  O   UNL     1      83.105  20.754  10.216  0.00  0.00    +0.000 OA
ATOM     21  H   UNL     1      83.790  20.088  10.020  0.00  0.00    +0.000 HD
ENDBRANCH   2  20
BRANCH   1  22
ATOM     22  C   UNL     1      84.831  22.307   7.231  0.00  0.00    +0.000 C 
BRANCH  22  23
ATOM     23  O   UNL     1      86.097  22.924   7.101  0.00  0.00    +0.000 OA
BRANCH  23  24
ATOM     24  P   UNL     1      86.044  24.470   6.584  0.00  0.00    +0.000 P 
ATOM     25  O   UNL     1      87.050  25.199   7.439  0.00  0.00    +0.000 OA
ATOM     26  O   UNL     1      86.128  24.413   5.083  0.00  0.00    +0.000 OA
BRANCH  24  27
ATOM     27  O   UNL     1      84.548  24.802   7.060  0.00  0.00    +0.000 OA
BRANCH  27  28
ATOM     28  C   UNL     1      83.953  25.973   6.835  0.00  0.00    +0.000 C 
ATOM     29  O   UNL     1      84.448  27.089   6.785  0.00  0.00    +0.000 OA
BRANCH  28  31
ATOM     30  C   UNL     1      81.601  26.794   6.585  0.00  0.00    +0.000 C 
ATOM     31  C   UNL     1      82.493  25.793   6.637  0.00  0.00    +0.000 C 
BRANCH  30  38
ATOM     32  C   UNL     1      76.369  25.488   4.242  0.00  0.00    +0.000 C 
ATOM     33  O   UNL     1      77.760  25.397   3.870  0.00  0.00    +0.000 OA
ATOM     34  C   UNL     1      78.354  25.908   4.982  0.00  0.00    +0.000 A 
ATOM     35  C   UNL     1      77.441  26.281   5.940  0.00  0.00    +0.000 A 
ATOM     36  C   UNL     1      77.836  26.830   7.139  0.00  0.00    +0.000 A 
ATOM     37  C   UNL     1      79.208  26.995   7.359  0.00  0.00    +0.000 A 
ATOM     38  C   UNL     1      80.157  26.601   6.388  0.00  0.00    +0.000 A 
ATOM     39  C   UNL     1      79.712  26.059   5.172  0.00  0.00    +0.000 A 
ATOM     40  O   UNL     1      76.159  26.050   5.553  0.00  0.00    +0.000 OA
ENDBRANCH  30  38
ENDBRANCH  28  31
ENDBRANCH  27  28
ENDBRANCH  24  27
ENDBRANCH  23  24
ENDBRANCH  22  23
ENDBRANCH   1  22
TORSDOF 10
ENDMDL
MODEL 8
REMARK VINA RESULT:    -8.253      4.436      8.939
REMARK INTER + INTRA:         -13.376
REMARK INTER:                 -12.596
REMARK INTRA:                  -0.781
REMARK UNBOUND:                -0.781
REMARK  Name = meth_amp_minimized.pdb
REMARK  10 active torsions:
REMARK  status: ('A' for Active; 'I' for Inactive)
REMARK    1  A    between atoms: C_7  and  C_9
REMARK    2  A    between atoms: C_10  and  C_11
REMARK    3  A    between atoms: C_11  and  O_13
REMARK    4  A    between atoms: O_13  and  P_14
REMARK    5  A    between atoms: P_14  and  O_17
REMARK    6  A    between atoms: O_17  and  C_18
REMARK    7  A    between atoms: C_18  and  C_19
REMARK    8  A    between atoms: C_20  and  O_35
REMARK    9  A    between atoms: C_21  and  O_34
REMARK   10  A    between atoms: C_22  and  N_24
REMARK                            x       y       z     vdW  Elec       q    Type
REMARK                         _______ _______ _______ _____ _____    ______ ____
ROOT
ATOM      1  C   UNL     1      83.783  25.446   7.796  0.00  0.00    +0.000 C 
ATOM      2  C   UNL     1      83.307  26.258   9.002  0.00  0.00    +0.000 C 
ATOM      3  C   UNL     1      81.867  26.584   8.646  0.00  0.00    +0.000 C 
ATOM      4  C   UNL     1      81.987  26.791   7.135  0.00  0.00    +0.000 C 
ATOM      5  O   UNL     1      83.030  25.914   6.650  0.00  0.00    +0.000 OA
ENDROOT
BRANCH   4   6
ATOM      6  N   UNL     1      80.772  26.519   6.395  0.00  0.00    +0.000 N 
ATOM      7  C   UNL     1      80.680  26.006   5.126  0.00  0.00    +0.000 A 
ATOM      8  N   UNL     1      79.429  25.908   4.721  0.00  0.00    +0.000 NA
ATOM      9  C   UNL     1      78.681  26.370   5.784  0.00  0.00    +0.000 A 
ATOM     10  C   UNL     1      77.297  26.527   5.966  0.00  0.00    +0.000 A 
ATOM     11  N   UNL     1      76.850  27.063   7.125  0.00  0.00    +0.000 NA
ATOM     12  C   UNL     1      77.765  27.392   8.065  0.00  0.00    +0.000 A 
ATOM     13  N   UNL     1      79.106  27.288   8.007  0.00  0.00    +0.000 NA
ATOM     14  C   UNL     1      79.498  26.766   6.831  0.00  0.00    +0.000 A 
ATOM     15  N   UNL     1      76.362  26.188   4.994  0.00  0.00    +0.000 N 
ATOM     16  H   UNL     1      75.513  26.725   5.088  0.00  0.00    +0.000 HD
ATOM     17  H   UNL     1      76.778  26.111   4.071  0.00  0.00    +0.000 HD
ENDBRANCH   4   6
BRANCH   3  18
ATOM     18  O   UNL     1      81.416  27.762   9.323  0.00  0.00    +0.000 OA
ATOM     19  H   UNL     1      82.112  28.429   9.152  0.00  0.00    +0.000 HD
ENDBRANCH   3  18
BRANCH   2  20
ATOM     20  O   UNL     1      84.030  27.513   9.074  0.00  0.00    +0.000 OA
ATOM     21  H   UNL     1      84.782  27.412   8.462  0.00  0.00    +0.000 HD
ENDBRANCH   2  20
BRANCH   1  22
ATOM     22  C   UNL     1      83.584  23.938   7.925  0.00  0.00    +0.000 C 
BRANCH  22  23
ATOM     23  O   UNL     1      83.152  23.621   9.234  0.00  0.00    +0.000 OA
BRANCH  23  24
ATOM     24  P   UNL     1      83.164  22.027   9.581  0.00  0.00    +0.000 P 
ATOM     25  O   UNL     1      81.783  21.736  10.112  0.00  0.00    +0.000 OA
ATOM     26  O   UNL     1      83.743  21.340   8.374  0.00  0.00    +0.000 OA
BRANCH  24  27
ATOM     27  O   UNL     1      84.233  22.078  10.777  0.00  0.00    +0.000 OA
BRANCH  27  28
ATOM     28  C   UNL     1      85.542  21.908  10.594  0.00  0.00    +0.000 C 
ATOM     29  O   UNL     1      86.131  20.970  10.077  0.00  0.00    +0.000 OA
BRANCH  28  31
ATOM     30  C   UNL     1      86.272  24.302  10.611  0.00  0.00    +0.000 C 
ATOM     31  C   UNL     1      86.303  23.065  11.129  0.00  0.00    +0.000 C 
BRANCH  30  38
ATOM     32  C   UNL     1      87.927  28.946  13.815  0.00  0.00    +0.000 C 
ATOM     33  O   UNL     1      86.836  28.004  13.782  0.00  0.00    +0.000 OA
ATOM     34  C   UNL     1      87.204  27.224  12.731  0.00  0.00    +0.000 A 
ATOM     35  C   UNL     1      88.389  27.633  12.165  0.00  0.00    +0.000 A 
ATOM     36  C   UNL     1      88.934  26.982  11.081  0.00  0.00    +0.000 A 
ATOM     37  C   UNL     1      88.242  25.878  10.569  0.00  0.00    +0.000 A 
ATOM     38  C   UNL     1      87.032  25.440  11.152  0.00  0.00    +0.000 A 
ATOM     39  C   UNL     1      86.502  26.140  12.247  0.00  0.00    +0.000 A 
ATOM     40  O   UNL     1      88.915  28.719  12.790  0.00  0.00    +0.000 OA
ENDBRANCH  30  38
ENDBRANCH  28  31
ENDBRANCH  27  28
ENDBRANCH  24  27
ENDBRANCH  23  24
ENDBRANCH  22  23
ENDBRANCH   1  22
TORSDOF 10
ENDMDL
MODEL 9
REMARK VINA RESULT:    -8.155      1.786      2.215
REMARK INTER + INTRA:         -13.226
REMARK INTER:                 -11.686
REMARK INTRA:                  -1.540
REMARK UNBOUND:                -0.781
REMARK  Name = meth_amp_minimized.pdb
REMARK  10 active torsions:
REMARK  status: ('A' for Active; 'I' for Inactive)
REMARK    1  A    between atoms: C_7  and  C_9
REMARK    2  A    between atoms: C_10  and  C_11
REMARK    3  A    between atoms: C_11  and  O_13
REMARK    4  A    between atoms: O_13  and  P_14
REMARK    5  A    between atoms: P_14  and  O_17
REMARK    6  A    between atoms: O_17  and  C_18
REMARK    7  A    between atoms: C_18  and  C_19
REMARK    8  A    between atoms: C_20  and  O_35
REMARK    9  A    between atoms: C_21  and  O_34
REMARK   10  A    between atoms: C_22  and  N_24
REMARK                            x       y       z     vdW  Elec       q    Type
REMARK                         _______ _______ _______ _____ _____    ______ ____
ROOT
ATOM      1  C   UNL     1      79.325  27.934   9.290  0.00  0.00    +0.000 C 
ATOM      2  C   UNL     1      80.261  29.103   9.605  0.00  0.00    +0.000 C 
ATOM      3  C   UNL     1      81.582  28.652   9.008  0.00  0.00    +0.000 C 
ATOM      4  C   UNL     1      81.529  27.150   9.300  0.00  0.00    +0.000 C 
ATOM      5  O   UNL     1      80.144  26.739   9.250  0.00  0.00    +0.000 OA
ENDROOT
BRANCH   4   6
ATOM      6  N   UNL     1      82.289  26.333   8.377  0.00  0.00    +0.000 N 
ATOM      7  C   UNL     1      82.155  26.295   7.012  0.00  0.00    +0.000 A 
ATOM      8  N   UNL     1      82.973  25.422   6.458  0.00  0.00    +0.000 NA
ATOM      9  C   UNL     1      83.673  24.880   7.517  0.00  0.00    +0.000 A 
ATOM     10  C   UNL     1      84.671  23.894   7.581  0.00  0.00    +0.000 A 
ATOM     11  N   UNL     1      85.145  23.527   8.793  0.00  0.00    +0.000 NA
ATOM     12  C   UNL     1      84.651  24.156   9.884  0.00  0.00    +0.000 A 
ATOM     13  N   UNL     1      83.703  25.110   9.948  0.00  0.00    +0.000 NA
ATOM     14  C   UNL     1      83.255  25.426   8.720  0.00  0.00    +0.000 A 
ATOM     15  N   UNL     1      85.174  23.250   6.455  0.00  0.00    +0.000 N 
ATOM     16  H   UNL     1      85.533  22.333   6.678  0.00  0.00    +0.000 HD
ATOM     17  H   UNL     1      84.556  23.338   5.655  0.00  0.00    +0.000 HD
ENDBRANCH   4   6
BRANCH   3  18
ATOM     18  O   UNL     1      82.690  29.292   9.648  0.00  0.00    +0.000 OA
ATOM     19  H   UNL     1      83.175  28.566  10.091  0.00  0.00    +0.000 HD
ENDBRANCH   3  18
BRANCH   2  20
ATOM     20  O   UNL     1      80.450  29.217  11.038  0.00  0.00    +0.000 OA
ATOM     21  H   UNL     1      81.126  29.910  11.154  0.00  0.00    +0.000 HD
ENDBRANCH   2  20
BRANCH   1  22
ATOM     22  C   UNL     1      78.578  28.056   7.965  0.00  0.00    +0.000 C 
BRANCH  22  23
ATOM     23  O   UNL     1      78.544  26.801   7.314  0.00  0.00    +0.000 OA
BRANCH  23  24
ATOM     24  P   UNL     1      78.122  26.869   5.740  0.00  0.00    +0.000 P 
ATOM     25  O   UNL     1      77.188  25.702   5.540  0.00  0.00    +0.000 OA
ATOM     26  O   UNL     1      77.724  28.295   5.473  0.00  0.00    +0.000 OA
BRANCH  24  27
ATOM     27  O   UNL     1      79.567  26.553   5.118  0.00  0.00    +0.000 OA
BRANCH  27  28
ATOM     28  C   UNL     1      79.812  26.546   3.808  0.00  0.00    +0.000 C 
ATOM     29  O   UNL     1      79.395  27.302   2.944  0.00  0.00    +0.000 OA
BRANCH  28  31
ATOM     30  C   UNL     1      80.511  24.572   2.435  0.00  0.00    +0.000 C 
ATOM     31  C   UNL     1      80.720  25.427   3.448  0.00  0.00    +0.000 C 
BRANCH  30  38
ATOM     32  C   UNL     1      82.699  19.546   0.311  0.00  0.00    +0.000 C 
ATOM     33  O   UNL     1      81.451  20.267   0.277  0.00  0.00    +0.000 OA
ATOM     34  C   UNL     1      81.770  21.363   1.017  0.00  0.00    +0.000 A 
ATOM     35  C   UNL     1      83.068  21.330   1.469  0.00  0.00    +0.000 A 
ATOM     36  C   UNL     1      83.589  22.341   2.245  0.00  0.00    +0.000 A 
ATOM     37  C   UNL     1      82.750  23.417   2.561  0.00  0.00    +0.000 A 
ATOM     38  C   UNL     1      81.419  23.468   2.090  0.00  0.00    +0.000 A 
ATOM     39  C   UNL     1      80.922  22.410   1.313  0.00  0.00    +0.000 A 
ATOM     40  O   UNL     1      83.730  20.212   1.068  0.00  0.00    +0.000 OA
ENDBRANCH  30  38
ENDBRANCH  28  31
ENDBRANCH  27  28
ENDBRANCH  24  27
ENDBRANCH  23  24
ENDBRANCH  22  23
ENDBRANCH   1  22
TORSDOF 10
ENDMDL
