689043
     RDKit          3D

 21 21  0  0  0  0  0  0  0  0999 V2000
   -2.8824   -1.5088    1.3501 O   0  0  0  0  0  0  0  0  0  0  0  0
   -3.0858   -2.7691   -1.0675 O   0  0  0  0  0  0  0  0  0  0  0  0
    2.4273    3.4567    1.5994 O   0  0  0  0  0  0  0  0  0  0  0  0
    3.7620    2.0588    0.4640 O   0  0  0  0  0  0  0  0  0  0  0  0
    0.2211   -0.3632   -0.2527 C   0  0  0  0  0  0  0  0  0  0  0  0
   -0.7884   -0.5348    0.7057 C   0  0  0  0  0  0  0  0  0  0  0  0
    0.1141   -1.0325   -1.4807 C   0  0  0  0  0  0  0  0  0  0  0  0
   -1.8926   -1.3403    0.4218 C   0  0  0  0  0  0  0  0  0  0  0  0
   -1.9962   -1.9863   -0.8094 C   0  0  0  0  0  0  0  0  0  0  0  0
   -0.9936   -1.8376   -1.7631 C   0  0  0  0  0  0  0  0  0  0  0  0
    1.4172    0.4504    0.0038 C   0  0  0  0  0  0  0  0  0  0  0  0
    1.4055    1.6037    0.6886 C   0  0  0  0  0  0  0  0  0  0  0  0
    2.6560    2.3498    0.8756 C   0  0  0  0  0  0  0  0  0  0  0  0
   -2.6547   -1.0172    2.1535 H   0  0  0  0  0  0  0  0  0  0  0  0
   -3.0036   -3.1445   -1.9571 H   0  0  0  0  0  0  0  0  0  0  0  0
    3.3092    3.8788    1.6662 H   0  0  0  0  0  0  0  0  0  0  0  0
   -0.7073   -0.0516    1.6742 H   0  0  0  0  0  0  0  0  0  0  0  0
    0.8915   -0.9255   -2.2350 H   0  0  0  0  0  0  0  0  0  0  0  0
   -1.0538   -2.3372   -2.7248 H   0  0  0  0  0  0  0  0  0  0  0  0
    2.3475    0.0764   -0.4221 H   0  0  0  0  0  0  0  0  0  0  0  0
    0.5069    2.0362    1.1093 H   0  0  0  0  0  0  0  0  0  0  0  0
  1  8  1  0
  2  9  1  0
  3 13  1  0
  4 13  2  0
  5  6  2  0
  5  7  1  0
  5 11  1  0
  6  8  1  0
  7 10  2  0
  8  9  2  0
  9 10  1  0
 11 12  2  0
 12 13  1  0
  1 14  1  0
  2 15  1  0
  3 16  1  0
  6 17  1  0
  7 18  1  0
 10 19  1  0
 11 20  1  0
 12 21  1  0
M  END

