34755
     RDKit          3D

 49 51  0  0  1  0  0  0  0  0999 V2000
    1.1825   -0.9124   -1.4423 S   0  0  0  0  0  3  0  0  0  0  0  0
   -1.1698    1.1342   -0.7839 O   0  0  0  0  0  0  0  0  0  0  0  0
    1.1643    1.7800    1.9145 O   0  0  0  0  0  0  0  0  0  0  0  0
   -1.1859    2.7635    2.0620 O   0  0  0  0  0  0  0  0  0  0  0  0
    3.4952    1.1915    1.0368 O   0  0  0  0  0  1  0  0  0  0  0  0
    5.7314    0.7161    1.2555 O   0  0  0  0  0  0  0  0  0  0  0  0
   -2.8967    0.0544    0.4040 N   0  0  0  0  0  0  0  0  0  0  0  0
   -3.5750   -2.0645    0.2376 N   0  0  0  0  0  0  0  0  0  0  0  0
   -4.9389    1.0885    1.2435 N   0  0  0  0  0  0  0  0  0  0  0  0
    6.0668    0.1770   -1.3230 N   0  0  0  0  0  0  0  0  0  0  0  0
   -6.7143   -0.5443    1.4902 N   0  0  0  0  0  0  0  0  0  0  0  0
   -6.4645   -2.8391    1.0265 N   0  0  0  0  0  0  0  0  0  0  0  0
    0.1630    1.4692   -0.3306 C   0  0  1  0  0  0  0  0  0  0  0  0
    0.2321    1.0410    1.1300 C   0  0  2  0  0  0  0  0  0  0  0  0
   -1.1735    1.3922    1.6111 C   0  0  2  0  0  0  0  0  0  0  0  0
   -2.0432    1.2249    0.3637 C   0  0  1  0  0  0  0  0  0  0  0  0
    1.2004    0.9012   -1.2933 C   0  0  0  0  0  0  0  0  0  0  0  0
    2.6190   -1.3602   -0.4216 C   0  0  0  0  0  0  0  0  0  0  0  0
   -4.2035    0.0490    0.8177 C   0  0  0  0  0  0  0  0  0  0  0  0
   -2.5653   -1.2330    0.0707 C   0  0  0  0  0  0  0  0  0  0  0  0
    4.0448   -1.1677   -0.9288 C   0  0  0  0  0  0  0  0  0  0  0  0
    1.9090   -1.0198   -3.0783 C   0  0  0  0  0  0  0  0  0  0  0  0
   -4.6006   -1.2740    0.7101 C   0  0  0  0  0  0  0  0  0  0  0  0
    4.6509    0.2336   -0.8434 C   0  0  1  0  0  0  0  0  0  0  0  0
   -5.9213   -1.5609    1.0825 C   0  0  0  0  0  0  0  0  0  0  0  0
   -6.1827    0.6957    1.5565 C   0  0  0  0  0  0  0  0  0  0  0  0
    4.6215    0.7622    0.6415 C   0  0  0  0  0  0  0  0  0  0  0  0
    2.0847    1.5210    1.6188 H   0  0  0  0  0  0  0  0  0  0  0  0
   -0.2791    2.8818    2.4434 H   0  0  0  0  0  0  0  0  0  0  0  0
    6.4538    1.0896   -1.0678 H   0  0  0  0  0  0  0  0  0  0  0  0
    6.5370   -0.4032   -0.6278 H   0  0  0  0  0  0  0  0  0  0  0  0
   -5.9812   -3.4418    0.3647 H   0  0  0  0  0  0  0  0  0  0  0  0
   -7.4711   -2.8085    0.9827 H   0  0  0  0  0  0  0  0  0  0  0  0
    0.2480    2.5635   -0.3883 H   0  0  0  0  0  0  0  0  0  0  0  0
    0.3970   -0.0330    1.2528 H   0  0  0  0  0  0  0  0  0  0  0  0
   -1.4899    0.7802    2.4692 H   0  0  0  0  0  0  0  0  0  0  0  0
   -2.6889    2.0949    0.2014 H   0  0  0  0  0  0  0  0  0  0  0  0
    2.1824    1.2698   -1.0526 H   0  0  0  0  0  0  0  0  0  0  0  0
    0.9474    1.2777   -2.2866 H   0  0  0  0  0  0  0  0  0  0  0  0
    2.4644   -0.9521    0.5803 H   0  0  0  0  0  0  0  0  0  0  0  0
    2.4995   -2.4424   -0.3014 H   0  0  0  0  0  0  0  0  0  0  0  0
   -1.5827   -1.5102   -0.2782 H   0  0  0  0  0  0  0  0  0  0  0  0
    4.6788   -1.8315   -0.3249 H   0  0  0  0  0  0  0  0  0  0  0  0
    4.1548   -1.5502   -1.9501 H   0  0  0  0  0  0  0  0  0  0  0  0
    2.2793   -2.0311   -3.2429 H   0  0  0  0  0  0  0  0  0  0  0  0
    2.7117   -0.2907   -3.2173 H   0  0  0  0  0  0  0  0  0  0  0  0
    1.1227   -0.8134   -3.8106 H   0  0  0  0  0  0  0  0  0  0  0  0
    4.1321    0.9336   -1.4853 H   0  0  0  0  0  0  0  0  0  0  0  0
   -6.8466    1.4769    1.9112 H   0  0  0  0  0  0  0  0  0  0  0  0
  1 17  1  1
  1 18  1  0
  1 22  1  0
  2 13  1  0
  2 16  1  0
  3 14  1  0
  4 15  1  0
  5 27  1  0
  6 27  2  0
  7 16  1  0
  7 19  1  0
  7 20  1  0
  8 20  2  0
  8 23  1  0
  9 19  1  0
  9 26  2  0
 10 24  1  0
 11 25  2  0
 11 26  1  0
 12 25  1  0
 13 14  1  0
 13 17  1  0
 14 15  1  0
 15 16  1  0
 18 21  1  0
 19 23  2  0
 21 24  1  0
 23 25  1  0
 24 27  1  0
  3 28  1  0
  4 29  1  0
 10 30  1  0
 10 31  1  0
 12 32  1  0
 12 33  1  0
 13 34  1  1
 14 35  1  6
 15 36  1  1
 16 37  1  6
 17 38  1  0
 17 39  1  0
 18 40  1  0
 18 41  1  0
 20 42  1  0
 21 43  1  0
 21 44  1  0
 22 45  1  0
 22 46  1  0
 22 47  1  0
 24 48  1  6
 26 49  1  0
M  CHG  2   1   1   5  -1
M  END

