443849
     RDKit          3D

 18 17  0  0  0  0  0  0  0  0999 V2000
   -2.1212   -1.9503    0.0193 O   0  0  0  0  0  0  0  0  0  0  0  0
    2.6908    0.6632   -0.1787 N   0  0  0  0  0  0  0  0  0  0  0  0
    0.3342    0.0604   -0.7307 C   0  0  0  0  0  0  0  0  0  0  0  0
   -0.2037    0.0538    0.7057 C   0  0  0  0  0  0  0  0  0  0  0  0
    1.8170   -0.3093   -0.8256 C   0  0  0  0  0  0  0  0  0  0  0  0
   -1.7058    0.3242    0.7651 C   0  0  0  0  0  0  0  0  0  0  0  0
   -2.5569   -0.8499    0.3401 C   0  0  0  0  0  0  0  0  0  0  0  0
    2.4814    1.5984   -0.5240 H   0  0  0  0  0  0  0  0  0  0  0  0
    2.5113    0.6787    0.8236 H   0  0  0  0  0  0  0  0  0  0  0  0
   -0.2302   -0.6544   -1.3407 H   0  0  0  0  0  0  0  0  0  0  0  0
    0.1702    1.0484   -1.1792 H   0  0  0  0  0  0  0  0  0  0  0  0
    0.3035    0.8344    1.2846 H   0  0  0  0  0  0  0  0  0  0  0  0
    0.0278   -0.9045    1.1859 H   0  0  0  0  0  0  0  0  0  0  0  0
    2.0998   -0.3759   -1.8819 H   0  0  0  0  0  0  0  0  0  0  0  0
    1.9898   -1.2978   -0.3864 H   0  0  0  0  0  0  0  0  0  0  0  0
   -1.9722    1.1828    0.1398 H   0  0  0  0  0  0  0  0  0  0  0  0
   -1.9914    0.5587    1.7966 H   0  0  0  0  0  0  0  0  0  0  0  0
   -3.6443   -0.6609    0.3466 H   0  0  0  0  0  0  0  0  0  0  0  0
  1  7  2  0
  2  5  1  0
  3  4  1  0
  3  5  1  0
  4  6  1  0
  6  7  1  0
  2  8  1  0
  2  9  1  0
  3 10  1  0
  3 11  1  0
  4 12  1  0
  4 13  1  0
  5 14  1  0
  5 15  1  0
  6 16  1  0
  6 17  1  0
  7 18  1  0
M  END

