REMARK  Name = SAM_minimized.pdb
REMARK  11 active torsions:
REMARK  status: ('A' for Active; 'I' for Inactive)
REMARK    1  A    between atoms: S_1  and  C_17
REMARK    2  A    between atoms: S_1  and  C_18
REMARK    3  A    between atoms: S_1  and  C_22
REMARK    4  A    between atoms: O_3  and  C_14
REMARK    5  A    between atoms: O_4  and  C_15
REMARK    6  A    between atoms: N_7  and  C_16
REMARK    7  A    between atoms: N_10  and  CA_24
REMARK    8  A    between atoms: C_13  and  C_17
REMARK    9  A    between atoms: C_18  and  C_21
REMARK   10  A    between atoms: C_21  and  CA_24
REMARK   11  A    between atoms: CA_24  and  C_27
REMARK                            x       y       z     vdW  Elec       q    Type
REMARK                         _______ _______ _______ _____ _____    ______ ____
ROOT
ATOM      1  O   UNL     1      -1.170   1.134  -0.784  0.00  0.00    +0.000 OA
ATOM      2  C   UNL     1       0.163   1.469  -0.331  0.00  0.00    +0.000 C 
ATOM      3  C   UNL     1       0.232   1.041   1.130  0.00  0.00    +0.000 C 
ATOM      4  C   UNL     1      -1.173   1.392   1.611  0.00  0.00    +0.000 C 
ATOM      5  C   UNL     1      -2.043   1.225   0.364  0.00  0.00    +0.000 C 
ENDROOT
BRANCH   5   6
ATOM      6  N   UNL     1      -2.897   0.054   0.404  0.00  0.00    +0.000 N 
ATOM      7  N   UNL     1      -3.575  -2.064   0.238  0.00  0.00    +0.000 NA
ATOM      8  N   UNL     1      -4.939   1.089   1.244  0.00  0.00    +0.000 NA
ATOM      9  N   UNL     1      -6.714  -0.544   1.490  0.00  0.00    +0.000 NA
ATOM     10  N   UNL     1      -6.465  -2.839   1.026  0.00  0.00    +0.000 N 
ATOM     11  C   UNL     1      -4.204   0.049   0.818  0.00  0.00    +0.000 A 
ATOM     12  C   UNL     1      -2.565  -1.233   0.071  0.00  0.00    +0.000 A 
ATOM     13  C   UNL     1      -4.601  -1.274   0.710  0.00  0.00    +0.000 A 
ATOM     14  C   UNL     1      -5.921  -1.561   1.083  0.00  0.00    +0.000 A 
ATOM     15  C   UNL     1      -6.183   0.696   1.556  0.00  0.00    +0.000 A 
ATOM     16  H   UNL     1      -5.981  -3.442   0.365  0.00  0.00    +0.000 HD
ATOM     17  H   UNL     1      -7.471  -2.808   0.983  0.00  0.00    +0.000 HD
ENDBRANCH   5   6
BRANCH   3  18
ATOM     18  O   UNL     1       1.164   1.780   1.915  0.00  0.00    +0.000 OA
ATOM     19  H   UNL     1       2.085   1.521   1.619  0.00  0.00    +0.000 HD
ENDBRANCH   3  18
BRANCH   4  20
ATOM     20  O   UNL     1      -1.186   2.764   2.062  0.00  0.00    +0.000 OA
ATOM     21  H   UNL     1      -0.279   2.882   2.443  0.00  0.00    +0.000 HD
ENDBRANCH   4  20
BRANCH   2  22
ATOM     22  C   UNL     1       1.200   0.901  -1.293  0.00  0.00    +0.000 C 
BRANCH  22  23
ATOM     23  S   UNL     1       1.183  -0.912  -1.442  0.00  0.00    +0.000 S 
ATOM     24  C   UNL     1       1.909  -1.020  -3.078  0.00  0.00    +0.000 C 
BRANCH  23  25
ATOM     25  C   UNL     1       2.619  -1.360  -0.422  0.00  0.00    +0.000 C 
BRANCH  25  26
ATOM     26  C   UNL     1       4.045  -1.168  -0.929  0.00  0.00    +0.000 C 
BRANCH  26  27
ATOM     27  CA  UNL     1       4.651   0.234  -0.843  0.00  0.00    +0.000 C 
BRANCH  27  30
ATOM     28  O   UNL     1       3.495   1.192   1.037  0.00  0.00    +0.000 OA
ATOM     29  OXT UNL     1       5.731   0.716   1.256  0.00  0.00    +0.000 OA
ATOM     30  C   UNL     1       4.622   0.762   0.641  0.00  0.00    +0.000 C 
ENDBRANCH  27  30
BRANCH  27  31
ATOM     31  N   UNL     1       6.067   0.177  -1.323  0.00  0.00    +0.000 NA
ATOM     32  H1  UNL     1       6.454   1.090  -1.068  0.00  0.00    +0.000 HD
ATOM     33  H2  UNL     1       6.537  -0.403  -0.628  0.00  0.00    +0.000 HD
ENDBRANCH  27  31
ENDBRANCH  26  27
ENDBRANCH  25  26
ENDBRANCH  23  25
ENDBRANCH  22  23
ENDBRANCH   2  22
TORSDOF 10
