MODEL 1
REMARK VINA RESULT:    -8.594      0.000      0.000
REMARK INTER + INTRA:         -12.773
REMARK INTER:                 -12.237
REMARK INTRA:                  -0.536
REMARK UNBOUND:                 0.091
REMARK  Name = SAM_minimized.pdb
REMARK  11 active torsions:
REMARK  status: ('A' for Active; 'I' for Inactive)
REMARK    1  A    between atoms: S_1  and  C_17
REMARK    2  A    between atoms: S_1  and  C_18
REMARK    3  A    between atoms: S_1  and  C_22
REMARK    4  A    between atoms: O_3  and  C_14
REMARK    5  A    between atoms: O_4  and  C_15
REMARK    6  A    between atoms: N_7  and  C_16
REMARK    7  A    between atoms: N_10  and  CA_24
REMARK    8  A    between atoms: C_13  and  C_17
REMARK    9  A    between atoms: C_18  and  C_21
REMARK   10  A    between atoms: C_21  and  CA_24
REMARK   11  A    between atoms: CA_24  and  C_27
REMARK                            x       y       z     vdW  Elec       q    Type
REMARK                         _______ _______ _______ _____ _____    ______ ____
ROOT
ATOM      1  O   UNL     1       8.920  27.189  -9.886  0.00  0.00    +0.000 OA
ATOM      2  C   UNL     1       8.600  27.797  -8.612  0.00  0.00    +0.000 C 
ATOM      3  C   UNL     1       9.900  27.822  -7.819  0.00  0.00    +0.000 C 
ATOM      4  C   UNL     1      10.531  26.497  -8.235  0.00  0.00    +0.000 C 
ATOM      5  C   UNL     1      10.010  26.270  -9.655  0.00  0.00    +0.000 C 
ENDROOT
BRANCH   5   6
ATOM      6  N   UNL     1      11.017  26.461 -10.681  0.00  0.00    +0.000 N 
ATOM      7  N   UNL     1      12.066  27.263 -12.478  0.00  0.00    +0.000 NA
ATOM      8  N   UNL     1      12.685  24.867  -9.892  0.00  0.00    +0.000 NA
ATOM      9  N   UNL     1      14.628  24.839 -11.342  0.00  0.00    +0.000 NA
ATOM     10  N   UNL     1      14.880  26.220 -13.232  0.00  0.00    +0.000 N 
ATOM     11  C   UNL     1      12.217  25.800 -10.736  0.00  0.00    +0.000 A 
ATOM     12  C   UNL     1      10.974  27.328 -11.741  0.00  0.00    +0.000 A 
ATOM     13  C   UNL     1      12.851  26.317 -11.855  0.00  0.00    +0.000 A 
ATOM     14  C   UNL     1      14.123  25.805 -12.143  0.00  0.00    +0.000 A 
ATOM     15  C   UNL     1      13.898  24.443 -10.277  0.00  0.00    +0.000 A 
ATOM     16  H   UNL     1      14.311  26.616 -13.977  0.00  0.00    +0.000 HD
ATOM     17  H   UNL     1      15.569  25.530 -13.485  0.00  0.00    +0.000 HD
ENDBRANCH   5   6
BRANCH   3  18
ATOM     18  O   UNL     1       9.726  27.802  -6.404  0.00  0.00    +0.000 OA
ATOM     19  H   UNL     1      10.464  28.344  -5.998  0.00  0.00    +0.000 HD
ENDBRANCH   3  18
BRANCH   4  20
ATOM     20  O   UNL     1      10.065  25.456  -7.349  0.00  0.00    +0.000 OA
ATOM     21  H   UNL     1       9.201  25.188  -7.754  0.00  0.00    +0.000 HD
ENDBRANCH   4  20
BRANCH   2  22
ATOM     22  C   UNL     1       7.869  29.116  -8.832  0.00  0.00    +0.000 C 
BRANCH  22  23
ATOM     23  S   UNL     1       8.954  30.541  -9.147  0.00  0.00    +0.000 S 
ATOM     24  C   UNL     1       7.731  31.603  -9.916  0.00  0.00    +0.000 C 
BRANCH  23  25
ATOM     25  C   UNL     1       9.038  31.290  -7.493  0.00  0.00    +0.000 C 
BRANCH  25  26
ATOM     26  C   UNL     1      10.121  32.303  -7.133  0.00  0.00    +0.000 C 
BRANCH  26  27
ATOM     27  CA  UNL     1       9.946  33.108  -5.845  0.00  0.00    +0.000 C 
BRANCH  27  30
ATOM     28  O   UNL     1      10.903  35.039  -4.775  0.00  0.00    +0.000 OA
ATOM     29  OXT UNL     1      11.997  34.136  -6.581  0.00  0.00    +0.000 OA
ATOM     30  C   UNL     1      11.070  34.204  -5.717  0.00  0.00    +0.000 C 
ENDBRANCH  27  30
BRANCH  27  31
ATOM     31  N   UNL     1       8.605  33.772  -5.871  0.00  0.00    +0.000 NA
ATOM     32  H1  UNL     1       8.271  33.622  -6.827  0.00  0.00    +0.000 HD
ATOM     33  H2  UNL     1       7.999  33.117  -5.377  0.00  0.00    +0.000 HD
ENDBRANCH  27  31
ENDBRANCH  26  27
ENDBRANCH  25  26
ENDBRANCH  23  25
ENDBRANCH  22  23
ENDBRANCH   2  22
TORSDOF 10
ENDMDL
MODEL 2
REMARK VINA RESULT:    -8.476      1.118      1.323
REMARK INTER + INTRA:         -12.597
REMARK INTER:                 -12.034
REMARK INTRA:                  -0.564
REMARK UNBOUND:                 0.091
REMARK  Name = SAM_minimized.pdb
REMARK  11 active torsions:
REMARK  status: ('A' for Active; 'I' for Inactive)
REMARK    1  A    between atoms: S_1  and  C_17
REMARK    2  A    between atoms: S_1  and  C_18
REMARK    3  A    between atoms: S_1  and  C_22
REMARK    4  A    between atoms: O_3  and  C_14
REMARK    5  A    between atoms: O_4  and  C_15
REMARK    6  A    between atoms: N_7  and  C_16
REMARK    7  A    between atoms: N_10  and  CA_24
REMARK    8  A    between atoms: C_13  and  C_17
REMARK    9  A    between atoms: C_18  and  C_21
REMARK   10  A    between atoms: C_21  and  CA_24
REMARK   11  A    between atoms: CA_24  and  C_27
REMARK                            x       y       z     vdW  Elec       q    Type
REMARK                         _______ _______ _______ _____ _____    ______ ____
ROOT
ATOM      1  O   UNL     1       9.069  27.125 -10.126  0.00  0.00    +0.000 OA
ATOM      2  C   UNL     1       8.639  27.823  -8.933  0.00  0.00    +0.000 C 
ATOM      3  C   UNL     1       9.873  27.946  -8.048  0.00  0.00    +0.000 C 
ATOM      4  C   UNL     1      10.562  26.609  -8.307  0.00  0.00    +0.000 C 
ATOM      5  C   UNL     1      10.157  26.256  -9.739  0.00  0.00    +0.000 C 
ENDROOT
BRANCH   5   6
ATOM      6  N   UNL     1      11.237  26.393 -10.698  0.00  0.00    +0.000 N 
ATOM      7  N   UNL     1      12.433  27.127 -12.430  0.00  0.00    +0.000 NA
ATOM      8  N   UNL     1      12.783  24.744  -9.781  0.00  0.00    +0.000 NA
ATOM      9  N   UNL     1      14.814  24.619 -11.098  0.00  0.00    +0.000 NA
ATOM     10  N   UNL     1      15.246  25.962 -12.984  0.00  0.00    +0.000 N 
ATOM     11  C   UNL     1      12.410  25.684 -10.665  0.00  0.00    +0.000 A 
ATOM     12  C   UNL     1      11.299  27.245 -11.768  0.00  0.00    +0.000 A 
ATOM     13  C   UNL     1      13.136  26.159 -11.746  0.00  0.00    +0.000 A 
ATOM     14  C   UNL     1      14.403  25.592 -11.942  0.00  0.00    +0.000 A 
ATOM     15  C   UNL     1      14.000  24.267 -10.080  0.00  0.00    +0.000 A 
ATOM     16  H   UNL     1      14.744  26.370 -13.769  0.00  0.00    +0.000 HD
ATOM     17  H   UNL     1      15.922  25.242 -13.182  0.00  0.00    +0.000 HD
ENDBRANCH   5   6
BRANCH   3  18
ATOM     18  O   UNL     1       9.590  28.033  -6.654  0.00  0.00    +0.000 OA
ATOM     19  H   UNL     1       9.555  27.101  -6.291  0.00  0.00    +0.000 HD
ENDBRANCH   3  18
BRANCH   4  20
ATOM     20  O   UNL     1      10.050  25.629  -7.377  0.00  0.00    +0.000 OA
ATOM     21  H   UNL     1      10.172  24.775  -7.863  0.00  0.00    +0.000 HD
ENDBRANCH   4  20
BRANCH   2  22
ATOM     22  C   UNL     1       7.900  29.101  -9.313  0.00  0.00    +0.000 C 
BRANCH  22  23
ATOM     23  S   UNL     1       8.680  30.633  -8.718  0.00  0.00    +0.000 S 
ATOM     24  C   UNL     1       7.815  31.772  -9.800  0.00  0.00    +0.000 C 
BRANCH  23  25
ATOM     25  C   UNL     1       7.772  30.908  -7.168  0.00  0.00    +0.000 C 
BRANCH  25  26
ATOM     26  C   UNL     1       7.564  32.311  -6.607  0.00  0.00    +0.000 C 
BRANCH  26  27
ATOM     27  CA  UNL     1       8.802  33.186  -6.394  0.00  0.00    +0.000 C 
BRANCH  27  30
ATOM     28  O   UNL     1       7.217  34.774  -5.524  0.00  0.00    +0.000 OA
ATOM     29  OXT UNL     1       9.428  35.011  -4.951  0.00  0.00    +0.000 OA
ATOM     30  C   UNL     1       8.445  34.451  -5.526  0.00  0.00    +0.000 C 
ENDBRANCH  27  30
BRANCH  27  31
ATOM     31  N   UNL     1       9.847  32.378  -5.690  0.00  0.00    +0.000 NA
ATOM     32  H1  UNL     1       9.362  32.003  -4.870  0.00  0.00    +0.000 HD
ATOM     33  H2  UNL     1       9.914  31.527  -6.248  0.00  0.00    +0.000 HD
ENDBRANCH  27  31
ENDBRANCH  26  27
ENDBRANCH  25  26
ENDBRANCH  23  25
ENDBRANCH  22  23
ENDBRANCH   2  22
TORSDOF 10
ENDMDL
MODEL 3
REMARK VINA RESULT:    -8.364      2.652      8.627
REMARK INTER + INTRA:         -12.429
REMARK INTER:                 -11.663
REMARK INTRA:                  -0.766
REMARK UNBOUND:                 0.091
REMARK  Name = SAM_minimized.pdb
REMARK  11 active torsions:
REMARK  status: ('A' for Active; 'I' for Inactive)
REMARK    1  A    between atoms: S_1  and  C_17
REMARK    2  A    between atoms: S_1  and  C_18
REMARK    3  A    between atoms: S_1  and  C_22
REMARK    4  A    between atoms: O_3  and  C_14
REMARK    5  A    between atoms: O_4  and  C_15
REMARK    6  A    between atoms: N_7  and  C_16
REMARK    7  A    between atoms: N_10  and  CA_24
REMARK    8  A    between atoms: C_13  and  C_17
REMARK    9  A    between atoms: C_18  and  C_21
REMARK   10  A    between atoms: C_21  and  CA_24
REMARK   11  A    between atoms: CA_24  and  C_27
REMARK                            x       y       z     vdW  Elec       q    Type
REMARK                         _______ _______ _______ _____ _____    ______ ____
ROOT
ATOM      1  O   UNL     1       7.762  29.941  -7.830  0.00  0.00    +0.000 OA
ATOM      2  C   UNL     1       7.729  29.243  -9.098  0.00  0.00    +0.000 C 
ATOM      3  C   UNL     1       8.371  30.180 -10.113  0.00  0.00    +0.000 C 
ATOM      4  C   UNL     1       7.861  31.536  -9.633  0.00  0.00    +0.000 C 
ATOM      5  C   UNL     1       7.693  31.354  -8.123  0.00  0.00    +0.000 C 
ENDROOT
BRANCH   5   6
ATOM      6  N   UNL     1       8.695  32.050  -7.339  0.00  0.00    +0.000 N 
ATOM      7  N   UNL     1      10.674  32.633  -6.491  0.00  0.00    +0.000 NA
ATOM      8  N   UNL     1       7.265  33.700  -6.255  0.00  0.00    +0.000 NA
ATOM      9  N   UNL     1       8.548  35.150  -4.795  0.00  0.00    +0.000 NA
ATOM     10  N   UNL     1      10.881  35.004  -4.514  0.00  0.00    +0.000 N 
ATOM     11  C   UNL     1       8.445  33.113  -6.511  0.00  0.00    +0.000 A 
ATOM     12  C   UNL     1      10.042  31.802  -7.297  0.00  0.00    +0.000 A 
ATOM     13  C   UNL     1       9.686  33.459  -6.000  0.00  0.00    +0.000 A 
ATOM     14  C   UNL     1       9.714  34.542  -5.111  0.00  0.00    +0.000 A 
ATOM     15  C   UNL     1       7.415  34.708  -5.382  0.00  0.00    +0.000 A 
ATOM     16  H   UNL     1      11.608  34.294  -4.473  0.00  0.00    +0.000 HD
ATOM     17  H   UNL     1      10.683  35.522  -3.673  0.00  0.00    +0.000 HD
ENDBRANCH   5   6
BRANCH   3  18
ATOM     18  O   UNL     1       7.925  29.991 -11.453  0.00  0.00    +0.000 OA
ATOM     19  H   UNL     1       8.513  30.538 -12.051  0.00  0.00    +0.000 HD
ENDBRANCH   3  18
BRANCH   4  20
ATOM     20  O   UNL     1       6.588  31.807 -10.258  0.00  0.00    +0.000 OA
ATOM     21  H   UNL     1       6.004  31.095  -9.892  0.00  0.00    +0.000 HD
ENDBRANCH   4  20
BRANCH   2  22
ATOM     22  C   UNL     1       8.317  27.846  -8.941  0.00  0.00    +0.000 C 
BRANCH  22  23
ATOM     23  S   UNL     1      10.059  27.811  -8.415  0.00  0.00    +0.000 S 
ATOM     24  C   UNL     1       9.801  27.089  -6.794  0.00  0.00    +0.000 C 
BRANCH  23  25
ATOM     25  C   UNL     1      10.669  26.359  -9.322  0.00  0.00    +0.000 C 
BRANCH  25  26
ATOM     26  C   UNL     1      10.971  26.424 -10.816  0.00  0.00    +0.000 C 
BRANCH  26  27
ATOM     27  CA  UNL     1      12.232  25.720 -11.321  0.00  0.00    +0.000 C 
BRANCH  27  30
ATOM     28  O   UNL     1      12.118  25.672 -13.724  0.00  0.00    +0.000 OA
ATOM     29  OXT UNL     1      13.476  27.232 -12.724  0.00  0.00    +0.000 OA
ATOM     30  C   UNL     1      12.647  26.271 -12.737  0.00  0.00    +0.000 C 
ENDBRANCH  27  30
BRANCH  27  31
ATOM     31  N   UNL     1      13.342  25.962 -10.348  0.00  0.00    +0.000 NA
ATOM     32  H1  UNL     1      14.191  25.893 -10.915  0.00  0.00    +0.000 HD
ATOM     33  H2  UNL     1      13.322  26.971 -10.201  0.00  0.00    +0.000 HD
ENDBRANCH  27  31
ENDBRANCH  26  27
ENDBRANCH  25  26
ENDBRANCH  23  25
ENDBRANCH  22  23
ENDBRANCH   2  22
TORSDOF 10
ENDMDL
MODEL 4
REMARK VINA RESULT:    -8.130      1.703      2.671
REMARK INTER + INTRA:         -12.079
REMARK INTER:                 -11.682
REMARK INTRA:                  -0.397
REMARK UNBOUND:                 0.091
REMARK  Name = SAM_minimized.pdb
REMARK  11 active torsions:
REMARK  status: ('A' for Active; 'I' for Inactive)
REMARK    1  A    between atoms: S_1  and  C_17
REMARK    2  A    between atoms: S_1  and  C_18
REMARK    3  A    between atoms: S_1  and  C_22
REMARK    4  A    between atoms: O_3  and  C_14
REMARK    5  A    between atoms: O_4  and  C_15
REMARK    6  A    between atoms: N_7  and  C_16
REMARK    7  A    between atoms: N_10  and  CA_24
REMARK    8  A    between atoms: C_13  and  C_17
REMARK    9  A    between atoms: C_18  and  C_21
REMARK   10  A    between atoms: C_21  and  CA_24
REMARK   11  A    between atoms: CA_24  and  C_27
REMARK                            x       y       z     vdW  Elec       q    Type
REMARK                         _______ _______ _______ _____ _____    ______ ____
ROOT
ATOM      1  O   UNL     1       9.880  28.755 -10.014  0.00  0.00    +0.000 OA
ATOM      2  C   UNL     1       8.461  29.003  -9.874  0.00  0.00    +0.000 C 
ATOM      3  C   UNL     1       7.770  27.675 -10.162  0.00  0.00    +0.000 C 
ATOM      4  C   UNL     1       8.646  27.119 -11.281  0.00  0.00    +0.000 C 
ATOM      5  C   UNL     1      10.031  27.699 -10.989  0.00  0.00    +0.000 C 
ENDROOT
BRANCH   5   6
ATOM      6  N   UNL     1      10.976  26.721 -10.486  0.00  0.00    +0.000 N 
ATOM      7  N   UNL     1      11.912  25.179  -9.174  0.00  0.00    +0.000 NA
ATOM      8  N   UNL     1      12.605  26.782 -12.299  0.00  0.00    +0.000 NA
ATOM      9  N   UNL     1      14.434  25.245 -11.888  0.00  0.00    +0.000 NA
ATOM     10  N   UNL     1      14.577  23.842 -10.003  0.00  0.00    +0.000 N 
ATOM     11  C   UNL     1      12.126  26.338 -11.125  0.00  0.00    +0.000 A 
ATOM     12  C   UNL     1      10.889  25.997  -9.325  0.00  0.00    +0.000 A 
ATOM     13  C   UNL     1      12.687  25.380 -10.296  0.00  0.00    +0.000 A 
ATOM     14  C   UNL     1      13.893  24.811 -10.727  0.00  0.00    +0.000 A 
ATOM     15  C   UNL     1      13.765  26.179 -12.598  0.00  0.00    +0.000 A 
ATOM     16  H   UNL     1      14.349  23.860  -9.012  0.00  0.00    +0.000 HD
ATOM     17  H   UNL     1      15.550  23.810 -10.260  0.00  0.00    +0.000 HD
ENDBRANCH   5   6
BRANCH   3  18
ATOM     18  O   UNL     1       6.442  27.801 -10.664  0.00  0.00    +0.000 OA
ATOM     19  H   UNL     1       5.827  27.351 -10.014  0.00  0.00    +0.000 HD
ENDBRANCH   3  18
BRANCH   4  20
ATOM     20  O   UNL     1       8.149  27.599 -12.550  0.00  0.00    +0.000 OA
ATOM     21  H   UNL     1       7.975  28.558 -12.372  0.00  0.00    +0.000 HD
ENDBRANCH   4  20
BRANCH   2  22
ATOM     22  C   UNL     1       8.178  29.682  -8.539  0.00  0.00    +0.000 C 
BRANCH  22  23
ATOM     23  S   UNL     1       8.539  31.465  -8.504  0.00  0.00    +0.000 S 
ATOM     24  C   UNL     1       7.552  31.932  -9.927  0.00  0.00    +0.000 C 
BRANCH  23  25
ATOM     25  C   UNL     1       7.447  32.016  -7.160  0.00  0.00    +0.000 C 
BRANCH  25  26
ATOM     26  C   UNL     1       7.885  33.093  -6.172  0.00  0.00    +0.000 C 
BRANCH  26  27
ATOM     27  CA  UNL     1       9.361  33.495  -6.160  0.00  0.00    +0.000 C 
BRANCH  27  30
ATOM     28  O   UNL     1       8.594  35.372  -4.866  0.00  0.00    +0.000 OA
ATOM     29  OXT UNL     1      10.803  34.763  -4.706  0.00  0.00    +0.000 OA
ATOM     30  C   UNL     1       9.612  34.660  -5.131  0.00  0.00    +0.000 C 
ENDBRANCH  27  30
BRANCH  27  31
ATOM     31  N   UNL     1      10.182  32.305  -5.774  0.00  0.00    +0.000 NA
ATOM     32  H1  UNL     1      10.784  32.142  -6.586  0.00  0.00    +0.000 HD
ATOM     33  H2  UNL     1      10.873  32.685  -5.128  0.00  0.00    +0.000 HD
ENDBRANCH  27  31
ENDBRANCH  26  27
ENDBRANCH  25  26
ENDBRANCH  23  25
ENDBRANCH  22  23
ENDBRANCH   2  22
TORSDOF 10
ENDMDL
MODEL 5
REMARK VINA RESULT:    -8.113      2.585      8.519
REMARK INTER + INTRA:         -12.053
REMARK INTER:                 -11.388
REMARK INTRA:                  -0.665
REMARK UNBOUND:                 0.091
REMARK  Name = SAM_minimized.pdb
REMARK  11 active torsions:
REMARK  status: ('A' for Active; 'I' for Inactive)
REMARK    1  A    between atoms: S_1  and  C_17
REMARK    2  A    between atoms: S_1  and  C_18
REMARK    3  A    between atoms: S_1  and  C_22
REMARK    4  A    between atoms: O_3  and  C_14
REMARK    5  A    between atoms: O_4  and  C_15
REMARK    6  A    between atoms: N_7  and  C_16
REMARK    7  A    between atoms: N_10  and  CA_24
REMARK    8  A    between atoms: C_13  and  C_17
REMARK    9  A    between atoms: C_18  and  C_21
REMARK   10  A    between atoms: C_21  and  CA_24
REMARK   11  A    between atoms: CA_24  and  C_27
REMARK                            x       y       z     vdW  Elec       q    Type
REMARK                         _______ _______ _______ _____ _____    ______ ____
ROOT
ATOM      1  O   UNL     1       9.233  30.250  -8.588  0.00  0.00    +0.000 OA
ATOM      2  C   UNL     1       8.961  28.868  -8.923  0.00  0.00    +0.000 C 
ATOM      3  C   UNL     1       7.964  28.371  -7.883  0.00  0.00    +0.000 C 
ATOM      4  C   UNL     1       8.462  29.082  -6.628  0.00  0.00    +0.000 C 
ATOM      5  C   UNL     1       9.079  30.377  -7.157  0.00  0.00    +0.000 C 
ENDROOT
BRANCH   5   6
ATOM      6  N   UNL     1       8.289  31.558  -6.869  0.00  0.00    +0.000 N 
ATOM      7  N   UNL     1       6.551  32.950  -6.746  0.00  0.00    +0.000 NA
ATOM      8  N   UNL     1       9.983  32.894  -5.732  0.00  0.00    +0.000 NA
ATOM      9  N   UNL     1       9.089  35.036  -5.032  0.00  0.00    +0.000 NA
ATOM     10  N   UNL     1       6.855  35.702  -5.365  0.00  0.00    +0.000 N 
ATOM     11  C   UNL     1       8.750  32.671  -6.213  0.00  0.00    +0.000 A 
ATOM     12  C   UNL     1       6.968  31.771  -7.163  0.00  0.00    +0.000 A 
ATOM     13  C   UNL     1       7.655  33.517  -6.146  0.00  0.00    +0.000 A 
ATOM     14  C   UNL     1       7.856  34.748  -5.507  0.00  0.00    +0.000 A 
ATOM     15  C   UNL     1      10.059  34.105  -5.160  0.00  0.00    +0.000 A 
ATOM     16  H   UNL     1       6.119  35.605  -6.061  0.00  0.00    +0.000 HD
ATOM     17  H   UNL     1       7.242  36.621  -5.218  0.00  0.00    +0.000 HD
ENDBRANCH   5   6
BRANCH   3  18
ATOM     18  O   UNL     1       8.016  26.967  -7.644  0.00  0.00    +0.000 OA
ATOM     19  H   UNL     1       7.106  26.675  -7.343  0.00  0.00    +0.000 HD
ENDBRANCH   3  18
BRANCH   4  20
ATOM     20  O   UNL     1       9.465  28.262  -5.990  0.00  0.00    +0.000 OA
ATOM     21  H   UNL     1      10.210  28.273  -6.643  0.00  0.00    +0.000 HD
ENDBRANCH   4  20
BRANCH   2  22
ATOM     22  C   UNL     1       8.579  28.753 -10.394  0.00  0.00    +0.000 C 
BRANCH  22  23
ATOM     23  S   UNL     1       8.827  27.100 -11.113  0.00  0.00    +0.000 S 
ATOM     24  C   UNL     1       7.505  27.170 -12.323  0.00  0.00    +0.000 C 
BRANCH  23  25
ATOM     25  C   UNL     1      10.263  27.399 -12.188  0.00  0.00    +0.000 C 
BRANCH  25  26
ATOM     26  C   UNL     1      11.230  26.277 -12.552  0.00  0.00    +0.000 C 
BRANCH  26  27
ATOM     27  CA  UNL     1      12.682  26.408 -12.088  0.00  0.00    +0.000 C 
BRANCH  27  30
ATOM     28  O   UNL     1      12.521  25.728  -9.786  0.00  0.00    +0.000 OA
ATOM     29  OXT UNL     1      13.676  24.382 -11.245  0.00  0.00    +0.000 OA
ATOM     30  C   UNL     1      12.986  25.396 -10.920  0.00  0.00    +0.000 C 
ENDBRANCH  27  30
BRANCH  27  31
ATOM     31  N   UNL     1      13.585  26.117 -13.246  0.00  0.00    +0.000 NA
ATOM     32  H1  UNL     1      13.659  27.012 -13.736  0.00  0.00    +0.000 HD
ATOM     33  H2  UNL     1      14.514  26.080 -12.826  0.00  0.00    +0.000 HD
ENDBRANCH  27  31
ENDBRANCH  26  27
ENDBRANCH  25  26
ENDBRANCH  23  25
ENDBRANCH  22  23
ENDBRANCH   2  22
TORSDOF 10
ENDMDL
MODEL 6
REMARK VINA RESULT:    -7.993      2.473      3.430
REMARK INTER + INTRA:         -11.874
REMARK INTER:                 -11.239
REMARK INTRA:                  -0.635
REMARK UNBOUND:                 0.091
REMARK  Name = SAM_minimized.pdb
REMARK  11 active torsions:
REMARK  status: ('A' for Active; 'I' for Inactive)
REMARK    1  A    between atoms: S_1  and  C_17
REMARK    2  A    between atoms: S_1  and  C_18
REMARK    3  A    between atoms: S_1  and  C_22
REMARK    4  A    between atoms: O_3  and  C_14
REMARK    5  A    between atoms: O_4  and  C_15
REMARK    6  A    between atoms: N_7  and  C_16
REMARK    7  A    between atoms: N_10  and  CA_24
REMARK    8  A    between atoms: C_13  and  C_17
REMARK    9  A    between atoms: C_18  and  C_21
REMARK   10  A    between atoms: C_21  and  CA_24
REMARK   11  A    between atoms: CA_24  and  C_27
REMARK                            x       y       z     vdW  Elec       q    Type
REMARK                         _______ _______ _______ _____ _____    ______ ____
ROOT
ATOM      1  O   UNL     1       9.987  28.709  -9.816  0.00  0.00    +0.000 OA
ATOM      2  C   UNL     1       8.563  28.945  -9.716  0.00  0.00    +0.000 C 
ATOM      3  C   UNL     1       7.889  27.644 -10.132  0.00  0.00    +0.000 C 
ATOM      4  C   UNL     1       8.811  27.175 -11.254  0.00  0.00    +0.000 C 
ATOM      5  C   UNL     1      10.181  27.731 -10.862  0.00  0.00    +0.000 C 
ENDROOT
BRANCH   5   6
ATOM      6  N   UNL     1      11.108  26.717 -10.397  0.00  0.00    +0.000 N 
ATOM      7  N   UNL     1      12.017  25.111  -9.146  0.00  0.00    +0.000 NA
ATOM      8  N   UNL     1      12.735  26.815 -12.211  0.00  0.00    +0.000 NA
ATOM      9  N   UNL     1      14.536  25.231 -11.861  0.00  0.00    +0.000 NA
ATOM     10  N   UNL     1      14.655  23.756 -10.029  0.00  0.00    +0.000 N 
ATOM     11  C   UNL     1      12.250  26.338 -11.053  0.00  0.00    +0.000 A 
ATOM     12  C   UNL     1      11.009  25.953  -9.264  0.00  0.00    +0.000 A 
ATOM     13  C   UNL     1      12.794  25.339 -10.261  0.00  0.00    +0.000 A 
ATOM     14  C   UNL     1      13.988  24.765 -10.716  0.00  0.00    +0.000 A 
ATOM     15  C   UNL     1      13.884  26.203 -12.534  0.00  0.00    +0.000 A 
ATOM     16  H   UNL     1      14.429  23.742  -9.037  0.00  0.00    +0.000 HD
ATOM     17  H   UNL     1      15.627  23.716 -10.289  0.00  0.00    +0.000 HD
ENDBRANCH   5   6
BRANCH   3  18
ATOM     18  O   UNL     1       6.581  27.807 -10.676  0.00  0.00    +0.000 OA
ATOM     19  H   UNL     1       5.924  27.486  -9.992  0.00  0.00    +0.000 HD
ENDBRANCH   3  18
BRANCH   4  20
ATOM     20  O   UNL     1       8.364  27.751 -12.501  0.00  0.00    +0.000 OA
ATOM     21  H   UNL     1       7.385  27.833 -12.370  0.00  0.00    +0.000 HD
ENDBRANCH   4  20
BRANCH   2  22
ATOM     22  C   UNL     1       8.224  29.520  -8.345  0.00  0.00    +0.000 C 
BRANCH  22  23
ATOM     23  S   UNL     1       8.564  31.298  -8.164  0.00  0.00    +0.000 S 
ATOM     24  C   UNL     1       7.383  31.888  -9.377  0.00  0.00    +0.000 C 
BRANCH  23  25
ATOM     25  C   UNL     1       7.664  31.672  -6.630  0.00  0.00    +0.000 C 
BRANCH  25  26
ATOM     26  C   UNL     1       6.374  32.487  -6.643  0.00  0.00    +0.000 C 
BRANCH  26  27
ATOM     27  CA  UNL     1       6.459  33.964  -6.256  0.00  0.00    +0.000 C 
BRANCH  27  30
ATOM     28  O   UNL     1       4.402  33.506  -5.096  0.00  0.00    +0.000 OA
ATOM     29  OXT UNL     1       5.591  35.381  -4.511  0.00  0.00    +0.000 OA
ATOM     30  C   UNL     1       5.375  34.317  -5.169  0.00  0.00    +0.000 C 
ENDBRANCH  27  30
BRANCH  27  31
ATOM     31  N   UNL     1       7.823  34.241  -5.707  0.00  0.00    +0.000 NA
ATOM     32  H1  UNL     1       8.260  34.840  -6.413  0.00  0.00    +0.000 HD
ATOM     33  H2  UNL     1       7.656  34.935  -4.979  0.00  0.00    +0.000 HD
ENDBRANCH  27  31
ENDBRANCH  26  27
ENDBRANCH  25  26
ENDBRANCH  23  25
ENDBRANCH  22  23
ENDBRANCH   2  22
TORSDOF 10
ENDMDL
MODEL 7
REMARK VINA RESULT:    -7.778      2.394      3.229
REMARK INTER + INTRA:         -11.552
REMARK INTER:                 -11.426
REMARK INTRA:                  -0.126
REMARK UNBOUND:                 0.091
REMARK  Name = SAM_minimized.pdb
REMARK  11 active torsions:
REMARK  status: ('A' for Active; 'I' for Inactive)
REMARK    1  A    between atoms: S_1  and  C_17
REMARK    2  A    between atoms: S_1  and  C_18
REMARK    3  A    between atoms: S_1  and  C_22
REMARK    4  A    between atoms: O_3  and  C_14
REMARK    5  A    between atoms: O_4  and  C_15
REMARK    6  A    between atoms: N_7  and  C_16
REMARK    7  A    between atoms: N_10  and  CA_24
REMARK    8  A    between atoms: C_13  and  C_17
REMARK    9  A    between atoms: C_18  and  C_21
REMARK   10  A    between atoms: C_21  and  CA_24
REMARK   11  A    between atoms: CA_24  and  C_27
REMARK                            x       y       z     vdW  Elec       q    Type
REMARK                         _______ _______ _______ _____ _____    ______ ____
ROOT
ATOM      1  O   UNL     1       9.683  28.402 -11.132  0.00  0.00    +0.000 OA
ATOM      2  C   UNL     1       8.354  28.391 -10.560  0.00  0.00    +0.000 C 
ATOM      3  C   UNL     1       7.725  27.067 -10.979  0.00  0.00    +0.000 C 
ATOM      4  C   UNL     1       8.273  26.911 -12.394  0.00  0.00    +0.000 C 
ATOM      5  C   UNL     1       9.628  27.620 -12.346  0.00  0.00    +0.000 C 
ENDROOT
BRANCH   5   6
ATOM      6  N   UNL     1      10.759  26.714 -12.379  0.00  0.00    +0.000 N 
ATOM      7  N   UNL     1      12.431  25.460 -13.158  0.00  0.00    +0.000 NA
ATOM      8  N   UNL     1      11.032  26.345  -9.984  0.00  0.00    +0.000 NA
ATOM      9  N   UNL     1      12.880  24.842  -9.532  0.00  0.00    +0.000 NA
ATOM     10  N   UNL     1      14.259  23.912 -11.199  0.00  0.00    +0.000 N 
ATOM     11  C   UNL     1      11.361  26.169 -11.274  0.00  0.00    +0.000 A 
ATOM     12  C   UNL     1      11.437  26.264 -13.481  0.00  0.00    +0.000 A 
ATOM     13  C   UNL     1      12.396  25.400 -11.781  0.00  0.00    +0.000 A 
ATOM     14  C   UNL     1      13.188  24.724 -10.843  0.00  0.00    +0.000 A 
ATOM     15  C   UNL     1      11.847  25.640  -9.185  0.00  0.00    +0.000 A 
ATOM     16  H   UNL     1      14.184  23.559 -12.150  0.00  0.00    +0.000 HD
ATOM     17  H   UNL     1      14.477  23.253 -10.469  0.00  0.00    +0.000 HD
ENDBRANCH   5   6
BRANCH   3  18
ATOM     18  O   UNL     1       6.302  27.092 -11.057  0.00  0.00    +0.000 OA
ATOM     19  H   UNL     1       5.955  27.447 -10.187  0.00  0.00    +0.000 HD
ENDBRANCH   3  18
BRANCH   4  20
ATOM     20  O   UNL     1       7.383  27.573 -13.319  0.00  0.00    +0.000 OA
ATOM     21  H   UNL     1       7.839  27.454 -14.190  0.00  0.00    +0.000 HD
ENDBRANCH   4  20
BRANCH   2  22
ATOM     22  C   UNL     1       8.424  28.711  -9.071  0.00  0.00    +0.000 C 
BRANCH  22  23
ATOM     23  S   UNL     1       8.881  30.429  -8.686  0.00  0.00    +0.000 S 
ATOM     24  C   UNL     1       7.556  31.232  -9.589  0.00  0.00    +0.000 C 
BRANCH  23  25
ATOM     25  C   UNL     1       8.252  30.585  -6.987  0.00  0.00    +0.000 C 
BRANCH  25  26
ATOM     26  C   UNL     1       7.183  31.611  -6.627  0.00  0.00    +0.000 C 
BRANCH  26  27
ATOM     27  CA  UNL     1       7.584  33.087  -6.615  0.00  0.00    +0.000 C 
BRANCH  27  30
ATOM     28  O   UNL     1       6.924  35.096  -5.467  0.00  0.00    +0.000 OA
ATOM     29  OXT UNL     1       5.409  33.377  -5.621  0.00  0.00    +0.000 OA
ATOM     30  C   UNL     1       6.525  33.945  -5.825  0.00  0.00    +0.000 C 
ENDBRANCH  27  30
BRANCH  27  31
ATOM     31  N   UNL     1       8.921  33.218  -5.956  0.00  0.00    +0.000 NA
ATOM     32  H1  UNL     1       8.778  32.825  -5.021  0.00  0.00    +0.000 HD
ATOM     33  H2  UNL     1       9.471  32.466  -6.370  0.00  0.00    +0.000 HD
ENDBRANCH  27  31
ENDBRANCH  26  27
ENDBRANCH  25  26
ENDBRANCH  23  25
ENDBRANCH  22  23
ENDBRANCH   2  22
TORSDOF 10
ENDMDL
MODEL 8
REMARK VINA RESULT:    -7.471      1.715      2.739
REMARK INTER + INTRA:         -11.093
REMARK INTER:                 -10.894
REMARK INTRA:                  -0.199
REMARK UNBOUND:                 0.091
REMARK  Name = SAM_minimized.pdb
REMARK  11 active torsions:
REMARK  status: ('A' for Active; 'I' for Inactive)
REMARK    1  A    between atoms: S_1  and  C_17
REMARK    2  A    between atoms: S_1  and  C_18
REMARK    3  A    between atoms: S_1  and  C_22
REMARK    4  A    between atoms: O_3  and  C_14
REMARK    5  A    between atoms: O_4  and  C_15
REMARK    6  A    between atoms: N_7  and  C_16
REMARK    7  A    between atoms: N_10  and  CA_24
REMARK    8  A    between atoms: C_13  and  C_17
REMARK    9  A    between atoms: C_18  and  C_21
REMARK   10  A    between atoms: C_21  and  CA_24
REMARK   11  A    between atoms: CA_24  and  C_27
REMARK                            x       y       z     vdW  Elec       q    Type
REMARK                         _______ _______ _______ _____ _____    ______ ____
ROOT
ATOM      1  O   UNL     1      10.261  28.097 -10.284  0.00  0.00    +0.000 OA
ATOM      2  C   UNL     1       8.862  28.020  -9.922  0.00  0.00    +0.000 C 
ATOM      3  C   UNL     1       8.254  26.947 -10.818  0.00  0.00    +0.000 C 
ATOM      4  C   UNL     1       9.001  27.190 -12.126  0.00  0.00    +0.000 C 
ATOM      5  C   UNL     1      10.359  27.736 -11.679  0.00  0.00    +0.000 C 
ENDROOT
BRANCH   5   6
ATOM      6  N   UNL     1      11.448  26.794 -11.850  0.00  0.00    +0.000 N 
ATOM      7  N   UNL     1      13.116  25.652 -12.792  0.00  0.00    +0.000 NA
ATOM      8  N   UNL     1      11.525  25.874  -9.593  0.00  0.00    +0.000 NA
ATOM      9  N   UNL     1      13.265  24.199  -9.387  0.00  0.00    +0.000 NA
ATOM     10  N   UNL     1      14.721  23.591 -11.134  0.00  0.00    +0.000 N 
ATOM     11  C   UNL     1      11.941  25.977 -10.866  0.00  0.00    +0.000 A 
ATOM     12  C   UNL     1      12.185  26.567 -12.982  0.00  0.00    +0.000 A 
ATOM     13  C   UNL     1      12.975  25.282 -11.472  0.00  0.00    +0.000 A 
ATOM     14  C   UNL     1      13.664  24.364 -10.668  0.00  0.00    +0.000 A 
ATOM     15  C   UNL     1      12.245  24.957  -8.930  0.00  0.00    +0.000 A 
ATOM     16  H   UNL     1      14.702  23.468 -12.144  0.00  0.00    +0.000 HD
ATOM     17  H   UNL     1      14.855  22.770 -10.565  0.00  0.00    +0.000 HD
ENDBRANCH   5   6
BRANCH   3  18
ATOM     18  O   UNL     1       6.861  27.112 -11.069  0.00  0.00    +0.000 OA
ATOM     19  H   UNL     1       6.723  28.037 -11.427  0.00  0.00    +0.000 HD
ENDBRANCH   3  18
BRANCH   4  20
ATOM     20  O   UNL     1       8.285  28.176 -12.900  0.00  0.00    +0.000 OA
ATOM     21  H   UNL     1       8.706  29.029 -12.621  0.00  0.00    +0.000 HD
ENDBRANCH   4  20
BRANCH   2  22
ATOM     22  C   UNL     1       8.720  27.857  -8.413  0.00  0.00    +0.000 C 
BRANCH  22  23
ATOM     23  S   UNL     1       8.046  29.313  -7.555  0.00  0.00    +0.000 S 
ATOM     24  C   UNL     1       8.299  28.733  -5.877  0.00  0.00    +0.000 C 
BRANCH  23  25
ATOM     25  C   UNL     1       9.431  30.480  -7.705  0.00  0.00    +0.000 C 
BRANCH  25  26
ATOM     26  C   UNL     1       9.219  31.985  -7.576  0.00  0.00    +0.000 C 
BRANCH  26  27
ATOM     27  CA  UNL     1       9.121  32.575  -6.168  0.00  0.00    +0.000 C 
BRANCH  27  30
ATOM     28  O   UNL     1      11.386  33.252  -6.617  0.00  0.00    +0.000 OA
ATOM     29  OXT UNL     1      10.311  34.165  -4.804  0.00  0.00    +0.000 OA
ATOM     30  C   UNL     1      10.404  33.426  -5.831  0.00  0.00    +0.000 C 
ENDBRANCH  27  30
BRANCH  27  31
ATOM     31  N   UNL     1       7.910  33.451  -6.096  0.00  0.00    +0.000 NA
ATOM     32  H1  UNL     1       7.599  33.528  -7.069  0.00  0.00    +0.000 HD
ATOM     33  H2  UNL     1       7.183  32.833  -5.737  0.00  0.00    +0.000 HD
ENDBRANCH  27  31
ENDBRANCH  26  27
ENDBRANCH  25  26
ENDBRANCH  23  25
ENDBRANCH  22  23
ENDBRANCH   2  22
TORSDOF 10
ENDMDL
MODEL 9
REMARK VINA RESULT:    -7.239      3.722      8.452
REMARK INTER + INTRA:         -10.745
REMARK INTER:                 -10.836
REMARK INTRA:                   0.091
REMARK UNBOUND:                 0.091
REMARK  Name = SAM_minimized.pdb
REMARK  11 active torsions:
REMARK  status: ('A' for Active; 'I' for Inactive)
REMARK    1  A    between atoms: S_1  and  C_17
REMARK    2  A    between atoms: S_1  and  C_18
REMARK    3  A    between atoms: S_1  and  C_22
REMARK    4  A    between atoms: O_3  and  C_14
REMARK    5  A    between atoms: O_4  and  C_15
REMARK    6  A    between atoms: N_7  and  C_16
REMARK    7  A    between atoms: N_10  and  CA_24
REMARK    8  A    between atoms: C_13  and  C_17
REMARK    9  A    between atoms: C_18  and  C_21
REMARK   10  A    between atoms: C_21  and  CA_24
REMARK   11  A    between atoms: CA_24  and  C_27
REMARK                            x       y       z     vdW  Elec       q    Type
REMARK                         _______ _______ _______ _____ _____    ______ ____
ROOT
ATOM      1  O   UNL     1       9.648  26.858  -9.452  0.00  0.00    +0.000 OA
ATOM      2  C   UNL     1      10.231  26.737 -10.771  0.00  0.00    +0.000 C 
ATOM      3  C   UNL     1       9.742  27.945 -11.561  0.00  0.00    +0.000 C 
ATOM      4  C   UNL     1       8.315  28.085 -11.039  0.00  0.00    +0.000 C 
ATOM      5  C   UNL     1       8.391  27.554  -9.607  0.00  0.00    +0.000 C 
ENDROOT
BRANCH   5   6
ATOM      6  N   UNL     1       8.296  28.590  -8.597  0.00  0.00    +0.000 N 
ATOM      7  N   UNL     1       8.386  29.618  -6.620  0.00  0.00    +0.000 NA
ATOM      8  N   UNL     1       7.618  30.455 -10.014  0.00  0.00    +0.000 NA
ATOM      9  N   UNL     1       7.332  32.484  -8.719  0.00  0.00    +0.000 NA
ATOM     10  N   UNL     1       7.717  32.631  -6.400  0.00  0.00    +0.000 N 
ATOM     11  C   UNL     1       7.945  29.893  -8.839  0.00  0.00    +0.000 A 
ATOM     12  C   UNL     1       8.554  28.475  -7.256  0.00  0.00    +0.000 A 
ATOM     13  C   UNL     1       8.012  30.510  -7.601  0.00  0.00    +0.000 A 
ATOM     14  C   UNL     1       7.699  31.876  -7.568  0.00  0.00    +0.000 A 
ATOM     15  C   UNL     1       7.325  31.754  -9.855  0.00  0.00    +0.000 A 
ATOM     16  H   UNL     1       7.604  32.062  -5.564  0.00  0.00    +0.000 HD
ATOM     17  H   UNL     1       7.146  33.456  -6.488  0.00  0.00    +0.000 HD
ENDBRANCH   5   6
BRANCH   3  18
ATOM     18  O   UNL     1       9.678  27.739 -12.969  0.00  0.00    +0.000 OA
ATOM     19  H   UNL     1       8.903  28.267 -13.320  0.00  0.00    +0.000 HD
ENDBRANCH   3  18
BRANCH   4  20
ATOM     20  O   UNL     1       7.438  27.264 -11.842  0.00  0.00    +0.000 OA
ATOM     21  H   UNL     1       7.408  27.749 -12.705  0.00  0.00    +0.000 HD
ENDBRANCH   4  20
BRANCH   2  22
ATOM     22  C   UNL     1      11.735  26.516 -10.659  0.00  0.00    +0.000 C 
BRANCH  22  23
ATOM     23  S   UNL     1      12.536  25.962 -12.196  0.00  0.00    +0.000 S 
ATOM     24  C   UNL     1      13.914  27.110 -12.169  0.00  0.00    +0.000 C 
BRANCH  23  25
ATOM     25  C   UNL     1      13.367  24.448 -11.631  0.00  0.00    +0.000 C 
BRANCH  25  26
ATOM     26  C   UNL     1      14.087  24.390 -10.287  0.00  0.00    +0.000 C 
BRANCH  26  27
ATOM     27  CA  UNL     1      15.386  23.587 -10.206  0.00  0.00    +0.000 C 
BRANCH  27  30
ATOM     28  O   UNL     1      16.968  23.407 -12.010  0.00  0.00    +0.000 OA
ATOM     29  OXT UNL     1      16.765  25.425 -10.933  0.00  0.00    +0.000 OA
ATOM     30  C   UNL     1      16.482  24.207 -11.153  0.00  0.00    +0.000 C 
ENDBRANCH  27  30
BRANCH  27  31
ATOM     31  N   UNL     1      15.880  23.609  -8.794  0.00  0.00    +0.000 NA
ATOM     32  H1  UNL     1      15.889  24.603  -8.548  0.00  0.00    +0.000 HD
ATOM     33  H2  UNL     1      15.071  23.311  -8.249  0.00  0.00    +0.000 HD
ENDBRANCH  27  31
ENDBRANCH  26  27
ENDBRANCH  25  26
ENDBRANCH  23  25
ENDBRANCH  22  23
ENDBRANCH   2  22
TORSDOF 10
ENDMDL
