REMARK  Name = cadaverine_minimized.pdb
REMARK  6 active torsions:
REMARK  status: ('A' for Active; 'I' for Inactive)
REMARK    1  A    between atoms: N_1  and  C_6
REMARK    2  A    between atoms: N_2  and  C_7
REMARK    3  A    between atoms: C_3  and  C_4
REMARK    4  A    between atoms: C_3  and  C_5
REMARK    5  A    between atoms: C_4  and  C_6
REMARK    6  A    between atoms: C_5  and  C_7
REMARK                            x       y       z     vdW  Elec       q    Type
REMARK                         _______ _______ _______ _____ _____    ______ ____
ROOT
ATOM      1  C   UNL     1      -0.050  -0.072   0.283  0.00  0.00    +0.000 C 
ENDROOT
BRANCH   1   2
ATOM      2  C   UNL     1      -1.218   0.128  -0.686  0.00  0.00    +0.000 C 
BRANCH   2   3
ATOM      3  C   UNL     1      -2.543  -0.282  -0.046  0.00  0.00    +0.000 C 
BRANCH   3   4
ATOM      4  N   UNL     1      -3.642  -0.077  -0.982  0.00  0.00    +0.000 NA
ATOM      5  H   UNL     1      -4.511  -0.404  -0.561  0.00  0.00    +0.000 HD
ATOM      6  H   UNL     1      -3.496  -0.646  -1.815  0.00  0.00    +0.000 HD
ENDBRANCH   3   4
ENDBRANCH   2   3
ENDBRANCH   1   2
BRANCH   1   7
ATOM      7  C   UNL     1       1.280   0.336  -0.354  0.00  0.00    +0.000 C 
BRANCH   7   8
ATOM      8  C   UNL     1       2.442   0.134   0.617  0.00  0.00    +0.000 C 
BRANCH   8   9
ATOM      9  N   UNL     1       3.698   0.535  -0.006  0.00  0.00    +0.000 NA
ATOM     10  H   UNL     1       3.868  -0.032  -0.836  0.00  0.00    +0.000 HD
ATOM     11  H   UNL     1       4.469   0.346   0.633  0.00  0.00    +0.000 HD
ENDBRANCH   8   9
ENDBRANCH   7   8
ENDBRANCH   1   7
TORSDOF 6
