MODEL 1
REMARK VINA RESULT:    -4.214      0.000      0.000
REMARK INTER + INTRA:          -5.835
REMARK INTER:                  -5.464
REMARK INTRA:                  -0.370
REMARK UNBOUND:                -0.388
REMARK  Name = cadaverine_minimized.pdb
REMARK  6 active torsions:
REMARK  status: ('A' for Active; 'I' for Inactive)
REMARK    1  A    between atoms: N_1  and  C_6
REMARK    2  A    between atoms: N_2  and  C_7
REMARK    3  A    between atoms: C_3  and  C_4
REMARK    4  A    between atoms: C_3  and  C_5
REMARK    5  A    between atoms: C_4  and  C_6
REMARK    6  A    between atoms: C_5  and  C_7
REMARK                            x       y       z     vdW  Elec       q    Type
REMARK                         _______ _______ _______ _____ _____    ______ ____
ROOT
ATOM      1  C   UNL     1     -15.806   6.393  52.455  0.00  0.00    +0.000 C 
ENDROOT
BRANCH   1   2
ATOM      2  C   UNL     1     -16.527   7.720  52.710  0.00  0.00    +0.000 C 
BRANCH   2   3
ATOM      3  C   UNL     1     -17.557   7.582  53.829  0.00  0.00    +0.000 C 
BRANCH   3   4
ATOM      4  N   UNL     1     -17.670   6.189  54.245  0.00  0.00    +0.000 NA
ATOM      5  H   UNL     1     -16.745   5.760  54.248  0.00  0.00    +0.000 HD
ATOM      6  H   UNL     1     -18.223   5.670  53.563  0.00  0.00    +0.000 HD
ENDBRANCH   3   4
ENDBRANCH   2   3
ENDBRANCH   1   2
BRANCH   1   7
ATOM      7  C   UNL     1     -15.952   5.950  50.998  0.00  0.00    +0.000 C 
BRANCH   7   8
ATOM      8  C   UNL     1     -17.421   5.772  50.619  0.00  0.00    +0.000 C 
BRANCH   8   9
ATOM      9  N   UNL     1     -18.009   4.670  51.373  0.00  0.00    +0.000 NA
ATOM     10  H   UNL     1     -18.212   3.893  50.746  0.00  0.00    +0.000 HD
ATOM     11  H   UNL     1     -18.902   4.965  51.764  0.00  0.00    +0.000 HD
ENDBRANCH   8   9
ENDBRANCH   7   8
ENDBRANCH   1   7
TORSDOF 6
ENDMDL
MODEL 2
REMARK VINA RESULT:    -4.199      0.488      3.040
REMARK INTER + INTRA:          -5.815
REMARK INTER:                  -5.443
REMARK INTRA:                  -0.372
REMARK UNBOUND:                -0.388
REMARK  Name = cadaverine_minimized.pdb
REMARK  6 active torsions:
REMARK  status: ('A' for Active; 'I' for Inactive)
REMARK    1  A    between atoms: N_1  and  C_6
REMARK    2  A    between atoms: N_2  and  C_7
REMARK    3  A    between atoms: C_3  and  C_4
REMARK    4  A    between atoms: C_3  and  C_5
REMARK    5  A    between atoms: C_4  and  C_6
REMARK    6  A    between atoms: C_5  and  C_7
REMARK                            x       y       z     vdW  Elec       q    Type
REMARK                         _______ _______ _______ _____ _____    ______ ____
ROOT
ATOM      1  C   UNL     1     -15.748   6.482  52.546  0.00  0.00    +0.000 C 
ENDROOT
BRANCH   1   2
ATOM      2  C   UNL     1     -16.066   6.295  51.060  0.00  0.00    +0.000 C 
BRANCH   2   3
ATOM      3  C   UNL     1     -16.705   4.932  50.800  0.00  0.00    +0.000 C 
BRANCH   3   4
ATOM      4  N   UNL     1     -18.053   4.891  51.354  0.00  0.00    +0.000 NA
ATOM      5  H   UNL     1     -18.032   5.218  52.319  0.00  0.00    +0.000 HD
ATOM      6  H   UNL     1     -18.383   3.927  51.386  0.00  0.00    +0.000 HD
ENDBRANCH   3   4
ENDBRANCH   2   3
ENDBRANCH   1   2
BRANCH   1   7
ATOM      7  C   UNL     1     -16.335   7.789  53.082  0.00  0.00    +0.000 C 
BRANCH   7   8
ATOM      8  C   UNL     1     -17.556   7.526  53.963  0.00  0.00    +0.000 C 
BRANCH   8   9
ATOM      9  N   UNL     1     -17.675   6.101  54.251  0.00  0.00    +0.000 NA
ATOM     10  H   UNL     1     -18.629   5.886  54.538  0.00  0.00    +0.000 HD
ATOM     11  H   UNL     1     -17.077   5.864  55.041  0.00  0.00    +0.000 HD
ENDBRANCH   8   9
ENDBRANCH   7   8
ENDBRANCH   1   7
TORSDOF 6
ENDMDL
MODEL 3
REMARK VINA RESULT:    -3.736     17.829     18.422
REMARK INTER + INTRA:          -5.217
REMARK INTER:                  -5.123
REMARK INTRA:                  -0.094
REMARK UNBOUND:                -0.388
REMARK  Name = cadaverine_minimized.pdb
REMARK  6 active torsions:
REMARK  status: ('A' for Active; 'I' for Inactive)
REMARK    1  A    between atoms: N_1  and  C_6
REMARK    2  A    between atoms: N_2  and  C_7
REMARK    3  A    between atoms: C_3  and  C_4
REMARK    4  A    between atoms: C_3  and  C_5
REMARK    5  A    between atoms: C_4  and  C_6
REMARK    6  A    between atoms: C_5  and  C_7
REMARK                            x       y       z     vdW  Elec       q    Type
REMARK                         _______ _______ _______ _____ _____    ______ ____
ROOT
ATOM      1  C   UNL     1     -15.452  -5.357  64.601  0.00  0.00    +0.000 C 
ENDROOT
BRANCH   1   2
ATOM      2  C   UNL     1     -16.199  -4.984  65.883  0.00  0.00    +0.000 C 
BRANCH   2   3
ATOM      3  C   UNL     1     -17.555  -5.684  65.956  0.00  0.00    +0.000 C 
BRANCH   3   4
ATOM      4  N   UNL     1     -17.609  -6.563  67.118  0.00  0.00    +0.000 NA
ATOM      5  H   UNL     1     -18.123  -6.102  67.868  0.00  0.00    +0.000 HD
ATOM      6  H   UNL     1     -16.667  -6.724  67.472  0.00  0.00    +0.000 HD
ENDBRANCH   3   4
ENDBRANCH   2   3
ENDBRANCH   1   2
BRANCH   1   7
ATOM      7  C   UNL     1     -14.332  -6.362  64.881  0.00  0.00    +0.000 C 
BRANCH   7   8
ATOM      8  C   UNL     1     -13.569  -5.998  66.153  0.00  0.00    +0.000 C 
BRANCH   8   9
ATOM      9  N   UNL     1     -12.131  -6.078  65.922  0.00  0.00    +0.000 NA
ATOM     10  H   UNL     1     -11.920  -6.890  65.342  0.00  0.00    +0.000 HD
ATOM     11  H   UNL     1     -11.653  -6.228  66.809  0.00  0.00    +0.000 HD
ENDBRANCH   8   9
ENDBRANCH   7   8
ENDBRANCH   1   7
TORSDOF 6
ENDMDL
MODEL 4
REMARK VINA RESULT:    -3.601     12.381     13.597
REMARK INTER + INTRA:          -5.042
REMARK INTER:                  -4.906
REMARK INTRA:                  -0.137
REMARK UNBOUND:                -0.388
REMARK  Name = cadaverine_minimized.pdb
REMARK  6 active torsions:
REMARK  status: ('A' for Active; 'I' for Inactive)
REMARK    1  A    between atoms: N_1  and  C_6
REMARK    2  A    between atoms: N_2  and  C_7
REMARK    3  A    between atoms: C_3  and  C_4
REMARK    4  A    between atoms: C_3  and  C_5
REMARK    5  A    between atoms: C_4  and  C_6
REMARK    6  A    between atoms: C_5  and  C_7
REMARK                            x       y       z     vdW  Elec       q    Type
REMARK                         _______ _______ _______ _____ _____    ______ ____
ROOT
ATOM      1  C   UNL     1     -16.500  18.541  55.698  0.00  0.00    +0.000 C 
ENDROOT
BRANCH   1   2
ATOM      2  C   UNL     1     -17.278  19.834  55.440  0.00  0.00    +0.000 C 
BRANCH   2   3
ATOM      3  C   UNL     1     -17.230  20.759  56.654  0.00  0.00    +0.000 C 
BRANCH   3   4
ATOM      4  N   UNL     1     -18.448  20.622  57.444  0.00  0.00    +0.000 NA
ATOM      5  H   UNL     1     -18.688  19.635  57.527  0.00  0.00    +0.000 HD
ATOM      6  H   UNL     1     -19.226  21.065  56.957  0.00  0.00    +0.000 HD
ENDBRANCH   3   4
ENDBRANCH   2   3
ENDBRANCH   1   2
BRANCH   1   7
ATOM      7  C   UNL     1     -16.143  18.390  57.178  0.00  0.00    +0.000 C 
BRANCH   7   8
ATOM      8  C   UNL     1     -16.889  17.216  57.809  0.00  0.00    +0.000 C 
BRANCH   8   9
ATOM      9  N   UNL     1     -18.328  17.443  57.755  0.00  0.00    +0.000 NA
ATOM     10  H   UNL     1     -18.755  17.160  58.637  0.00  0.00    +0.000 HD
ATOM     11  H   UNL     1     -18.738  16.851  57.035  0.00  0.00    +0.000 HD
ENDBRANCH   8   9
ENDBRANCH   7   8
ENDBRANCH   1   7
TORSDOF 6
ENDMDL
MODEL 5
REMARK VINA RESULT:    -3.560      2.747      3.189
REMARK INTER + INTRA:          -4.989
REMARK INTER:                  -4.919
REMARK INTRA:                  -0.070
REMARK UNBOUND:                -0.388
REMARK  Name = cadaverine_minimized.pdb
REMARK  6 active torsions:
REMARK  status: ('A' for Active; 'I' for Inactive)
REMARK    1  A    between atoms: N_1  and  C_6
REMARK    2  A    between atoms: N_2  and  C_7
REMARK    3  A    between atoms: C_3  and  C_4
REMARK    4  A    between atoms: C_3  and  C_5
REMARK    5  A    between atoms: C_4  and  C_6
REMARK    6  A    between atoms: C_5  and  C_7
REMARK                            x       y       z     vdW  Elec       q    Type
REMARK                         _______ _______ _______ _____ _____    ______ ____
ROOT
ATOM      1  C   UNL     1     -18.362   6.341  50.656  0.00  0.00    +0.000 C 
ENDROOT
BRANCH   1   2
ATOM      2  C   UNL     1     -17.131   6.197  51.554  0.00  0.00    +0.000 C 
BRANCH   2   3
ATOM      3  C   UNL     1     -17.279   7.021  52.831  0.00  0.00    +0.000 C 
BRANCH   3   4
ATOM      4  N   UNL     1     -17.440   6.143  53.984  0.00  0.00    +0.000 NA
ATOM      5  H   UNL     1     -16.690   6.320  54.652  0.00  0.00    +0.000 HD
ATOM      6  H   UNL     1     -17.341   5.171  53.694  0.00  0.00    +0.000 HD
ENDBRANCH   3   4
ENDBRANCH   2   3
ENDBRANCH   1   2
BRANCH   1   7
ATOM      7  C   UNL     1     -19.199   7.560  51.047  0.00  0.00    +0.000 C 
BRANCH   7   8
ATOM      8  C   UNL     1     -20.023   8.067  49.865  0.00  0.00    +0.000 C 
BRANCH   8   9
ATOM      9  N   UNL     1     -20.691   9.316  50.211  0.00  0.00    +0.000 NA
ATOM     10  H   UNL     1     -21.316   9.165  51.002  0.00  0.00    +0.000 HD
ATOM     11  H   UNL     1     -21.279   9.613  49.434  0.00  0.00    +0.000 HD
ENDBRANCH   8   9
ENDBRANCH   7   8
ENDBRANCH   1   7
TORSDOF 6
ENDMDL
MODEL 6
REMARK VINA RESULT:    -3.506     12.584     13.014
REMARK INTER + INTRA:          -4.920
REMARK INTER:                  -4.864
REMARK INTRA:                  -0.056
REMARK UNBOUND:                -0.388
REMARK  Name = cadaverine_minimized.pdb
REMARK  6 active torsions:
REMARK  status: ('A' for Active; 'I' for Inactive)
REMARK    1  A    between atoms: N_1  and  C_6
REMARK    2  A    between atoms: N_2  and  C_7
REMARK    3  A    between atoms: C_3  and  C_4
REMARK    4  A    between atoms: C_3  and  C_5
REMARK    5  A    between atoms: C_4  and  C_6
REMARK    6  A    between atoms: C_5  and  C_7
REMARK                            x       y       z     vdW  Elec       q    Type
REMARK                         _______ _______ _______ _____ _____    ______ ____
ROOT
ATOM      1  C   UNL     1     -16.527  18.625  55.012  0.00  0.00    +0.000 C 
ENDROOT
BRANCH   1   2
ATOM      2  C   UNL     1     -16.649  18.339  56.511  0.00  0.00    +0.000 C 
BRANCH   2   3
ATOM      3  C   UNL     1     -18.090  18.502  56.989  0.00  0.00    +0.000 C 
BRANCH   3   4
ATOM      4  N   UNL     1     -18.478  17.369  57.821  0.00  0.00    +0.000 NA
ATOM      5  H   UNL     1     -17.655  16.806  58.032  0.00  0.00    +0.000 HD
ATOM      6  H   UNL     1     -19.114  16.763  57.303  0.00  0.00    +0.000 HD
ENDBRANCH   3   4
ENDBRANCH   2   3
ENDBRANCH   1   2
BRANCH   1   7
ATOM      7  C   UNL     1     -17.208  19.943  54.638  0.00  0.00    +0.000 C 
BRANCH   7   8
ATOM      8  C   UNL     1     -17.342  20.085  53.123  0.00  0.00    +0.000 C 
BRANCH   8   9
ATOM      9  N   UNL     1     -16.497  19.109  52.446  0.00  0.00    +0.000 NA
ATOM     10  H   UNL     1     -16.491  19.292  51.444  0.00  0.00    +0.000 HD
ATOM     11  H   UNL     1     -16.893  18.177  52.565  0.00  0.00    +0.000 HD
ENDBRANCH   8   9
ENDBRANCH   7   8
ENDBRANCH   1   7
TORSDOF 6
ENDMDL
MODEL 7
REMARK VINA RESULT:    -3.331     14.793     15.885
REMARK INTER + INTRA:          -4.694
REMARK INTER:                  -4.305
REMARK INTRA:                  -0.388
REMARK UNBOUND:                -0.388
REMARK  Name = cadaverine_minimized.pdb
REMARK  6 active torsions:
REMARK  status: ('A' for Active; 'I' for Inactive)
REMARK    1  A    between atoms: N_1  and  C_6
REMARK    2  A    between atoms: N_2  and  C_7
REMARK    3  A    between atoms: C_3  and  C_4
REMARK    4  A    between atoms: C_3  and  C_5
REMARK    5  A    between atoms: C_4  and  C_6
REMARK    6  A    between atoms: C_5  and  C_7
REMARK                            x       y       z     vdW  Elec       q    Type
REMARK                         _______ _______ _______ _____ _____    ______ ____
ROOT
ATOM      1  C   UNL     1     -18.334  -9.449  47.548  0.00  0.00    +0.000 C 
ENDROOT
BRANCH   1   2
ATOM      2  C   UNL     1     -19.115  -8.442  48.396  0.00  0.00    +0.000 C 
BRANCH   2   3
ATOM      3  C   UNL     1     -19.372  -7.151  47.623  0.00  0.00    +0.000 C 
BRANCH   3   4
ATOM      4  N   UNL     1     -19.171  -7.367  46.195  0.00  0.00    +0.000 NA
ATOM      5  H   UNL     1     -18.263  -6.992  45.921  0.00  0.00    +0.000 HD
ATOM      6  H   UNL     1     -19.867  -6.844  45.666  0.00  0.00    +0.000 HD
ENDBRANCH   3   4
ENDBRANCH   2   3
ENDBRANCH   1   2
BRANCH   1   7
ATOM      7  C   UNL     1     -16.981  -9.781  48.179  0.00  0.00    +0.000 C 
BRANCH   7   8
ATOM      8  C   UNL     1     -15.866  -8.926  47.579  0.00  0.00    +0.000 C 
BRANCH   8   9
ATOM      9  N   UNL     1     -16.202  -8.543  46.213  0.00  0.00    +0.000 NA
ATOM     10  H   UNL     1     -15.381  -8.153  45.752  0.00  0.00    +0.000 HD
ATOM     11  H   UNL     1     -16.900  -7.801  46.230  0.00  0.00    +0.000 HD
ENDBRANCH   8   9
ENDBRANCH   7   8
ENDBRANCH   1   7
TORSDOF 6
ENDMDL
MODEL 8
REMARK VINA RESULT:    -3.328      2.142      3.438
REMARK INTER + INTRA:          -4.689
REMARK INTER:                  -4.615
REMARK INTRA:                  -0.074
REMARK UNBOUND:                -0.388
REMARK  Name = cadaverine_minimized.pdb
REMARK  6 active torsions:
REMARK  status: ('A' for Active; 'I' for Inactive)
REMARK    1  A    between atoms: N_1  and  C_6
REMARK    2  A    between atoms: N_2  and  C_7
REMARK    3  A    between atoms: C_3  and  C_4
REMARK    4  A    between atoms: C_3  and  C_5
REMARK    5  A    between atoms: C_4  and  C_6
REMARK    6  A    between atoms: C_5  and  C_7
REMARK                            x       y       z     vdW  Elec       q    Type
REMARK                         _______ _______ _______ _____ _____    ______ ____
ROOT
ATOM      1  C   UNL     1     -16.751   6.610  53.030  0.00  0.00    +0.000 C 
ENDROOT
BRANCH   1   2
ATOM      2  C   UNL     1     -15.934   6.574  51.736  0.00  0.00    +0.000 C 
BRANCH   2   3
ATOM      3  C   UNL     1     -16.274   5.339  50.903  0.00  0.00    +0.000 C 
BRANCH   3   4
ATOM      4  N   UNL     1     -16.449   5.706  49.503  0.00  0.00    +0.000 NA
ATOM      5  H   UNL     1     -15.721   6.366  49.232  0.00  0.00    +0.000 HD
ATOM      6  H   UNL     1     -17.336   6.195  49.383  0.00  0.00    +0.000 HD
ENDBRANCH   3   4
ENDBRANCH   2   3
ENDBRANCH   1   2
BRANCH   1   7
ATOM      7  C   UNL     1     -17.659   7.841  53.082  0.00  0.00    +0.000 C 
BRANCH   7   8
ATOM      8  C   UNL     1     -18.793   7.733  52.063  0.00  0.00    +0.000 C 
BRANCH   8   9
ATOM      9  N   UNL     1     -19.201   9.061  51.618  0.00  0.00    +0.000 NA
ATOM     10  H   UNL     1     -20.181   9.044  51.337  0.00  0.00    +0.000 HD
ATOM     11  H   UNL     1     -18.669   9.319  50.789  0.00  0.00    +0.000 HD
ENDBRANCH   8   9
ENDBRANCH   7   8
ENDBRANCH   1   7
TORSDOF 6
ENDMDL
MODEL 9
REMARK VINA RESULT:    -3.287     11.454     11.981
REMARK INTER + INTRA:          -4.636
REMARK INTER:                  -4.359
REMARK INTRA:                  -0.278
REMARK UNBOUND:                -0.388
REMARK  Name = cadaverine_minimized.pdb
REMARK  6 active torsions:
REMARK  status: ('A' for Active; 'I' for Inactive)
REMARK    1  A    between atoms: N_1  and  C_6
REMARK    2  A    between atoms: N_2  and  C_7
REMARK    3  A    between atoms: C_3  and  C_4
REMARK    4  A    between atoms: C_3  and  C_5
REMARK    5  A    between atoms: C_4  and  C_6
REMARK    6  A    between atoms: C_5  and  C_7
REMARK                            x       y       z     vdW  Elec       q    Type
REMARK                         _______ _______ _______ _____ _____    ______ ____
ROOT
ATOM      1  C   UNL     1     -22.905  13.504  46.318  0.00  0.00    +0.000 C 
ENDROOT
BRANCH   1   2
ATOM      2  C   UNL     1     -21.792  13.266  45.295  0.00  0.00    +0.000 C 
BRANCH   2   3
ATOM      3  C   UNL     1     -20.505  13.983  45.701  0.00  0.00    +0.000 C 
BRANCH   3   4
ATOM      4  N   UNL     1     -20.816  15.208  46.427  0.00  0.00    +0.000 NA
ATOM      5  H   UNL     1     -21.607  15.674  45.983  0.00  0.00    +0.000 HD
ATOM      6  H   UNL     1     -20.031  15.855  46.363  0.00  0.00    +0.000 HD
ENDBRANCH   3   4
ENDBRANCH   2   3
ENDBRANCH   1   2
BRANCH   1   7
ATOM      7  C   UNL     1     -24.084  14.256  45.696  0.00  0.00    +0.000 C 
BRANCH   7   8
ATOM      8  C   UNL     1     -24.498  15.446  46.560  0.00  0.00    +0.000 C 
BRANCH   8   9
ATOM      9  N   UNL     1     -23.815  15.398  47.848  0.00  0.00    +0.000 NA
ATOM     10  H   UNL     1     -24.297  14.751  48.470  0.00  0.00    +0.000 HD
ATOM     11  H   UNL     1     -23.865  16.314  48.292  0.00  0.00    +0.000 HD
ENDBRANCH   8   9
ENDBRANCH   7   8
ENDBRANCH   1   7
TORSDOF 6
ENDMDL
