6140
     RDKit          3D

 23 23  0  0  1  0  0  0  0  0999 V2000
   -3.1314    1.5842    0.0075 O   0  0  0  0  0  0  0  0  0  0  0  0
   -4.0169   -0.4573   -0.1374 O   0  0  0  0  0  0  0  0  0  0  0  0
   -1.6565   -1.7025    0.6824 N   0  0  0  0  0  0  0  0  0  0  0  0
   -0.7046    0.0268   -0.8570 C   0  0  0  0  0  0  0  0  0  0  0  0
   -1.6131   -0.2520    0.3525 C   0  0  1  0  0  0  0  0  0  0  0  0
    0.7599    0.1135   -0.4929 C   0  0  0  0  0  0  0  0  0  0  0  0
    1.3712    1.3610   -0.3049 C   0  0  0  0  0  0  0  0  0  0  0  0
    1.5228   -1.0486   -0.3202 C   0  0  0  0  0  0  0  0  0  0  0  0
   -3.0306    0.2408    0.0462 C   0  0  0  0  0  0  0  0  0  0  0  0
    2.7217    1.4426    0.0390 C   0  0  0  0  0  0  0  0  0  0  0  0
    2.8726   -0.9653    0.0246 C   0  0  0  0  0  0  0  0  0  0  0  0
    3.4722    0.2799    0.2025 C   0  0  0  0  0  0  0  0  0  0  0  0
   -4.0809    1.7489   -0.1745 H   0  0  0  0  0  0  0  0  0  0  0  0
   -2.2737   -1.8257    1.4872 H   0  0  0  0  0  0  0  0  0  0  0  0
   -2.1395   -2.1848   -0.0795 H   0  0  0  0  0  0  0  0  0  0  0  0
   -0.9947    0.9643   -1.3498 H   0  0  0  0  0  0  0  0  0  0  0  0
   -0.8401   -0.7420   -1.6304 H   0  0  0  0  0  0  0  0  0  0  0  0
   -1.2668    0.2815    1.2457 H   0  0  0  0  0  0  0  0  0  0  0  0
    0.7998    2.2786   -0.4253 H   0  0  0  0  0  0  0  0  0  0  0  0
    1.0641   -2.0276   -0.4443 H   0  0  0  0  0  0  0  0  0  0  0  0
    3.1879    2.4139    0.1810 H   0  0  0  0  0  0  0  0  0  0  0  0
    3.4538   -1.8737    0.1585 H   0  0  0  0  0  0  0  0  0  0  0  0
    4.5229    0.3435    0.4722 H   0  0  0  0  0  0  0  0  0  0  0  0
  1  9  1  0
  2  9  2  0
  3  5  1  0
  4  5  1  0
  4  6  1  0
  5  9  1  0
  6  7  2  0
  6  8  1  0
  7 10  1  0
  8 11  2  0
 10 12  2  0
 11 12  1  0
  1 13  1  0
  3 14  1  0
  3 15  1  0
  4 16  1  0
  4 17  1  0
  5 18  1  1
  7 19  1  0
  8 20  1  0
 10 21  1  0
 11 22  1  0
 12 23  1  0
M  END

