68161
     RDKit          3D

 15 15  0  0  0  0  0  0  0  0999 V2000
    0.4680    1.6737    0.0393 N   0  0  0  0  0  0  0  0  0  0  0  0
   -0.3823   -1.0738    0.2834 C   0  0  0  0  0  0  0  0  0  0  0  0
    0.8562   -0.7251   -0.5213 C   0  0  0  0  0  0  0  0  0  0  0  0
   -1.4070    0.0335    0.1429 C   0  0  0  0  0  0  0  0  0  0  0  0
    1.4402    0.5803   -0.0040 C   0  0  0  0  0  0  0  0  0  0  0  0
   -0.7870    1.4039    0.1286 C   0  0  0  0  0  0  0  0  0  0  0  0
   -0.1121   -1.1969    1.3395 H   0  0  0  0  0  0  0  0  0  0  0  0
   -0.8067   -2.0259   -0.0529 H   0  0  0  0  0  0  0  0  0  0  0  0
    1.5998   -1.5251   -0.4377 H   0  0  0  0  0  0  0  0  0  0  0  0
    0.5978   -0.6283   -1.5830 H   0  0  0  0  0  0  0  0  0  0  0  0
   -2.1403   -0.0117    0.9545 H   0  0  0  0  0  0  0  0  0  0  0  0
   -1.9602   -0.0745   -0.7973 H   0  0  0  0  0  0  0  0  0  0  0  0
    2.2706    0.8795   -0.6529 H   0  0  0  0  0  0  0  0  0  0  0  0
    1.8565    0.4396    1.0004 H   0  0  0  0  0  0  0  0  0  0  0  0
   -1.4936    2.2508    0.1606 H   0  0  0  0  0  0  0  0  0  0  0  0
  1  5  1  0
  1  6  2  0
  2  3  1  0
  2  4  1  0
  3  5  1  0
  4  6  1  0
  2  7  1  0
  2  8  1  0
  3  9  1  0
  3 10  1  0
  4 11  1  0
  4 12  1  0
  5 13  1  0
  5 14  1  0
  6 15  1  0
M  END

