273
     RDKit          3D

 21 20  0  0  0  0  0  0  0  0999 V2000
   -3.6420   -0.0775   -0.9823 N   0  0  0  0  0  0  0  0  0  0  0  0
    3.6981    0.5348   -0.0058 N   0  0  0  0  0  0  0  0  0  0  0  0
   -0.0503   -0.0720    0.2832 C   0  0  0  0  0  0  0  0  0  0  0  0
   -1.2175    0.1275   -0.6863 C   0  0  0  0  0  0  0  0  0  0  0  0
    1.2800    0.3358   -0.3540 C   0  0  0  0  0  0  0  0  0  0  0  0
   -2.5431   -0.2818   -0.0464 C   0  0  0  0  0  0  0  0  0  0  0  0
    2.4423    0.1341    0.6168 C   0  0  0  0  0  0  0  0  0  0  0  0
   -4.5109   -0.4035   -0.5613 H   0  0  0  0  0  0  0  0  0  0  0  0
   -3.4959   -0.6465   -1.8151 H   0  0  0  0  0  0  0  0  0  0  0  0
    3.8679   -0.0322   -0.8355 H   0  0  0  0  0  0  0  0  0  0  0  0
    4.4689    0.3456    0.6333 H   0  0  0  0  0  0  0  0  0  0  0  0
   -0.0032   -1.1242    0.5894 H   0  0  0  0  0  0  0  0  0  0  0  0
   -0.2204    0.5216    1.1897 H   0  0  0  0  0  0  0  0  0  0  0  0
   -1.2624    1.1804   -0.9922 H   0  0  0  0  0  0  0  0  0  0  0  0
   -1.0433   -0.4650   -1.5934 H   0  0  0  0  0  0  0  0  0  0  0  0
    1.2308    1.3884   -0.6606 H   0  0  0  0  0  0  0  0  0  0  0  0
    1.4462   -0.2573   -1.2622 H   0  0  0  0  0  0  0  0  0  0  0  0
   -2.5109   -1.3358    0.2508 H   0  0  0  0  0  0  0  0  0  0  0  0
   -2.7264    0.3135    0.8545 H   0  0  0  0  0  0  0  0  0  0  0  0
    2.2859    0.7316    1.5213 H   0  0  0  0  0  0  0  0  0  0  0  0
    2.5061   -0.9173    0.9182 H   0  0  0  0  0  0  0  0  0  0  0  0
  1  6  1  0
  2  7  1  0
  3  4  1  0
  3  5  1  0
  4  6  1  0
  5  7  1  0
  1  8  1  0
  1  9  1  0
  2 10  1  0
  2 11  1  0
  3 12  1  0
  3 13  1  0
  4 14  1  0
  4 15  1  0
  5 16  1  0
  5 17  1  0
  6 18  1  0
  6 19  1  0
  7 20  1  0
  7 21  1  0
M  END

