REMARK  Name = cinnamic_minimized.pdb
REMARK  3 active torsions:
REMARK  status: ('A' for Active; 'I' for Inactive)
REMARK    1  A    between atoms: O_1  and  C_11
REMARK    2  A    between atoms: C_3  and  C_6
REMARK    3  A    between atoms: C_10  and  C_11
REMARK                            x       y       z     vdW  Elec       q    Type
REMARK                         _______ _______ _______ _____ _____    ______ ____
ROOT
ATOM      1  C   UNL     1      -0.118  -0.049   0.486  0.00  0.00    +0.000 A 
ATOM      2  C   UNL     1      -1.480  -0.196   0.190  0.00  0.00    +0.000 A 
ATOM      3  C   UNL     1       0.255   0.270   1.799  0.00  0.00    +0.000 A 
ATOM      4  C   UNL     1      -2.448  -0.001   1.180  0.00  0.00    +0.000 A 
ATOM      5  C   UNL     1      -0.713   0.466   2.787  0.00  0.00    +0.000 A 
ATOM      6  C   UNL     1      -2.064   0.332   2.477  0.00  0.00    +0.000 A 
ENDROOT
BRANCH   1   7
ATOM      7  C   UNL     1       0.934  -0.272  -0.514  0.00  0.00    +0.000 C 
ATOM      8  C   UNL     1       0.826   0.081  -1.805  0.00  0.00    +0.000 C 
BRANCH   8  10
ATOM      9  O   UNL     1       1.796   0.177  -3.974  0.00  0.00    +0.000 OA
ATOM     10  C   UNL     1       1.885  -0.134  -2.799  0.00  0.00    +0.000 C 
BRANCH  10  11
ATOM     11  O   UNL     1       2.989  -0.715  -2.308  0.00  0.00    +0.000 OA
ATOM     12  H   UNL     1       3.581  -0.784  -3.085  0.00  0.00    +0.000 HD
ENDBRANCH  10  11
ENDBRANCH   8  10
ENDBRANCH   1   7
TORSDOF 3
