REMARK  Name = piperideine_minimized.pdb
REMARK  0 active torsions:
REMARK  status: ('A' for Active; 'I' for Inactive)
REMARK                            x       y       z     vdW  Elec       q    Type
REMARK                         _______ _______ _______ _____ _____    ______ ____
ROOT
ATOM      1  N   UNL     1       0.468   1.674   0.039  0.00  0.00    +0.000 NA
ATOM      2  C   UNL     1      -0.382  -1.074   0.283  0.00  0.00    +0.000 C 
ATOM      3  C   UNL     1       0.856  -0.725  -0.521  0.00  0.00    +0.000 C 
ATOM      4  C   UNL     1      -1.407   0.034   0.143  0.00  0.00    +0.000 C 
ATOM      5  C   UNL     1       1.440   0.580  -0.004  0.00  0.00    +0.000 C 
ATOM      6  C   UNL     1      -0.787   1.404   0.129  0.00  0.00    +0.000 C 
ENDROOT
TORSDOF 0
