MODEL 1
REMARK VINA RESULT:    -3.889      0.000      0.000
REMARK INTER + INTRA:          -3.889
REMARK INTER:                  -3.889
REMARK INTRA:                   0.000
REMARK UNBOUND:                 0.000
REMARK  Name = piperideine_minimized.pdb
REMARK  0 active torsions:
REMARK  status: ('A' for Active; 'I' for Inactive)
REMARK                            x       y       z     vdW  Elec       q    Type
REMARK                         _______ _______ _______ _____ _____    ______ ____
ROOT
ATOM      1  N   UNL     1      29.780  61.848  39.803  0.00  0.00    +0.000 NA
ATOM      2  C   UNL     1      29.098  60.734  37.229  0.00  0.00    +0.000 C 
ATOM      3  C   UNL     1      30.235  60.143  38.041  0.00  0.00    +0.000 C 
ATOM      4  C   UNL     1      29.038  62.232  37.454  0.00  0.00    +0.000 C 
ATOM      5  C   UNL     1      30.002  60.430  39.515  0.00  0.00    +0.000 C 
ATOM      6  C   UNL     1      29.329  62.620  38.877  0.00  0.00    +0.000 C 
ENDROOT
TORSDOF 0
ENDMDL
MODEL 2
REMARK VINA RESULT:    -3.822      0.844      2.069
REMARK INTER + INTRA:          -3.822
REMARK INTER:                  -3.822
REMARK INTRA:                   0.000
REMARK UNBOUND:                 0.000
REMARK  Name = piperideine_minimized.pdb
REMARK  0 active torsions:
REMARK  status: ('A' for Active; 'I' for Inactive)
REMARK                            x       y       z     vdW  Elec       q    Type
REMARK                         _______ _______ _______ _____ _____    ______ ____
ROOT
ATOM      1  N   UNL     1      28.842  62.535  39.099  0.00  0.00    +0.000 NA
ATOM      2  C   UNL     1      30.380  60.201  38.378  0.00  0.00    +0.000 C 
ATOM      3  C   UNL     1      29.249  60.677  37.486  0.00  0.00    +0.000 C 
ATOM      4  C   UNL     1      30.029  60.467  39.829  0.00  0.00    +0.000 C 
ATOM      5  C   UNL     1      29.037  62.168  37.695  0.00  0.00    +0.000 C 
ATOM      6  C   UNL     1      29.313  61.775  40.025  0.00  0.00    +0.000 C 
ENDROOT
TORSDOF 0
ENDMDL
MODEL 3
REMARK VINA RESULT:    -3.752      2.023      3.246
REMARK INTER + INTRA:          -3.752
REMARK INTER:                  -3.752
REMARK INTRA:                   0.000
REMARK UNBOUND:                 0.000
REMARK  Name = piperideine_minimized.pdb
REMARK  0 active torsions:
REMARK  status: ('A' for Active; 'I' for Inactive)
REMARK                            x       y       z     vdW  Elec       q    Type
REMARK                         _______ _______ _______ _____ _____    ______ ____
ROOT
ATOM      1  N   UNL     1      28.783  62.273  38.500  0.00  0.00    +0.000 NA
ATOM      2  C   UNL     1      28.515  64.791  37.114  0.00  0.00    +0.000 C 
ATOM      3  C   UNL     1      27.789  64.560  38.425  0.00  0.00    +0.000 C 
ATOM      4  C   UNL     1      28.583  63.493  36.335  0.00  0.00    +0.000 C 
ATOM      5  C   UNL     1      28.538  63.515  39.237  0.00  0.00    +0.000 C 
ATOM      6  C   UNL     1      28.822  62.296  37.214  0.00  0.00    +0.000 C 
ENDROOT
TORSDOF 0
ENDMDL
MODEL 4
REMARK VINA RESULT:    -3.740      2.421      3.732
REMARK INTER + INTRA:          -3.740
REMARK INTER:                  -3.740
REMARK INTRA:                   0.000
REMARK UNBOUND:                 0.000
REMARK  Name = piperideine_minimized.pdb
REMARK  0 active torsions:
REMARK  status: ('A' for Active; 'I' for Inactive)
REMARK                            x       y       z     vdW  Elec       q    Type
REMARK                         _______ _______ _______ _____ _____    ______ ____
ROOT
ATOM      1  N   UNL     1      28.119  62.737  40.692  0.00  0.00    +0.000 NA
ATOM      2  C   UNL     1      28.993  64.968  39.080  0.00  0.00    +0.000 C 
ATOM      3  C   UNL     1      27.551  64.877  39.543  0.00  0.00    +0.000 C 
ATOM      4  C   UNL     1      29.529  63.575  38.813  0.00  0.00    +0.000 C 
ATOM      5  C   UNL     1      27.483  64.050  40.817  0.00  0.00    +0.000 C 
ATOM      6  C   UNL     1      29.041  62.561  39.811  0.00  0.00    +0.000 C 
ENDROOT
TORSDOF 0
ENDMDL
MODEL 5
REMARK VINA RESULT:    -3.728      1.953      3.008
REMARK INTER + INTRA:          -3.728
REMARK INTER:                  -3.728
REMARK INTRA:                   0.000
REMARK UNBOUND:                 0.000
REMARK  Name = piperideine_minimized.pdb
REMARK  0 active torsions:
REMARK  status: ('A' for Active; 'I' for Inactive)
REMARK                            x       y       z     vdW  Elec       q    Type
REMARK                         _______ _______ _______ _____ _____    ______ ____
ROOT
ATOM      1  N   UNL     1      29.921  63.071  38.957  0.00  0.00    +0.000 NA
ATOM      2  C   UNL     1      27.649  64.306  37.673  0.00  0.00    +0.000 C 
ATOM      3  C   UNL     1      28.738  63.657  36.841  0.00  0.00    +0.000 C 
ATOM      4  C   UNL     1      28.262  64.932  38.911  0.00  0.00    +0.000 C 
ATOM      5  C   UNL     1      29.430  62.584  37.667  0.00  0.00    +0.000 C 
ATOM      6  C   UNL     1      29.368  64.100  39.498  0.00  0.00    +0.000 C 
ENDROOT
TORSDOF 0
ENDMDL
MODEL 6
REMARK VINA RESULT:    -3.590      1.855      3.532
REMARK INTER + INTRA:          -3.590
REMARK INTER:                  -3.590
REMARK INTRA:                   0.000
REMARK UNBOUND:                 0.000
REMARK  Name = piperideine_minimized.pdb
REMARK  0 active torsions:
REMARK  status: ('A' for Active; 'I' for Inactive)
REMARK                            x       y       z     vdW  Elec       q    Type
REMARK                         _______ _______ _______ _____ _____    ______ ____
ROOT
ATOM      1  N   UNL     1      29.410  61.591  39.186  0.00  0.00    +0.000 NA
ATOM      2  C   UNL     1      29.195  63.223  41.557  0.00  0.00    +0.000 C 
ATOM      3  C   UNL     1      29.704  63.822  40.260  0.00  0.00    +0.000 C 
ATOM      4  C   UNL     1      29.645  61.779  41.661  0.00  0.00    +0.000 C 
ATOM      5  C   UNL     1      29.150  63.028  39.088  0.00  0.00    +0.000 C 
ATOM      6  C   UNL     1      29.602  61.058  40.341  0.00  0.00    +0.000 C 
ENDROOT
TORSDOF 0
ENDMDL
MODEL 7
REMARK VINA RESULT:    -3.572      2.281      3.501
REMARK INTER + INTRA:          -3.572
REMARK INTER:                  -3.572
REMARK INTRA:                   0.000
REMARK UNBOUND:                 0.000
REMARK  Name = piperideine_minimized.pdb
REMARK  0 active torsions:
REMARK  status: ('A' for Active; 'I' for Inactive)
REMARK                            x       y       z     vdW  Elec       q    Type
REMARK                         _______ _______ _______ _____ _____    ______ ____
ROOT
ATOM      1  N   UNL     1      28.291  62.802  38.447  0.00  0.00    +0.000 NA
ATOM      2  C   UNL     1      28.825  64.676  40.577  0.00  0.00    +0.000 C 
ATOM      3  C   UNL     1      28.988  63.186  40.811  0.00  0.00    +0.000 C 
ATOM      4  C   UNL     1      27.677  64.916  39.617  0.00  0.00    +0.000 C 
ATOM      5  C   UNL     1      29.276  62.498  39.486  0.00  0.00    +0.000 C 
ATOM      6  C   UNL     1      27.612  63.893  38.517  0.00  0.00    +0.000 C 
ENDROOT
TORSDOF 0
ENDMDL
MODEL 8
REMARK VINA RESULT:    -3.556     13.199     13.976
REMARK INTER + INTRA:          -3.556
REMARK INTER:                  -3.556
REMARK INTRA:                   0.000
REMARK UNBOUND:                 0.000
REMARK  Name = piperideine_minimized.pdb
REMARK  0 active torsions:
REMARK  status: ('A' for Active; 'I' for Inactive)
REMARK                            x       y       z     vdW  Elec       q    Type
REMARK                         _______ _______ _______ _____ _____    ______ ____
ROOT
ATOM      1  N   UNL     1      36.142  72.671  45.882  0.00  0.00    +0.000 NA
ATOM      2  C   UNL     1      33.675  71.590  44.843  0.00  0.00    +0.000 C 
ATOM      3  C   UNL     1      34.921  71.619  43.979  0.00  0.00    +0.000 C 
ATOM      4  C   UNL     1      33.656  72.806  45.747  0.00  0.00    +0.000 C 
ATOM      5  C   UNL     1      36.152  71.612  44.871  0.00  0.00    +0.000 C 
ATOM      6  C   UNL     1      35.019  73.165  46.271  0.00  0.00    +0.000 C 
ENDROOT
TORSDOF 0
ENDMDL
MODEL 9
REMARK VINA RESULT:    -3.527     12.950     13.321
REMARK INTER + INTRA:          -3.527
REMARK INTER:                  -3.527
REMARK INTRA:                   0.000
REMARK UNBOUND:                 0.000
REMARK  Name = piperideine_minimized.pdb
REMARK  0 active torsions:
REMARK  status: ('A' for Active; 'I' for Inactive)
REMARK                            x       y       z     vdW  Elec       q    Type
REMARK                         _______ _______ _______ _____ _____    ______ ____
ROOT
ATOM      1  N   UNL     1      35.510  70.741  44.594  0.00  0.00    +0.000 NA
ATOM      2  C   UNL     1      33.791  72.175  46.416  0.00  0.00    +0.000 C 
ATOM      3  C   UNL     1      34.045  70.692  46.612  0.00  0.00    +0.000 C 
ATOM      4  C   UNL     1      33.772  72.496  44.935  0.00  0.00    +0.000 C 
ATOM      5  C   UNL     1      35.384  70.326  45.992  0.00  0.00    +0.000 C 
ATOM      6  C   UNL     1      34.801  71.722  44.157  0.00  0.00    +0.000 C 
ENDROOT
TORSDOF 0
ENDMDL
