MODEL 1
REMARK VINA RESULT:    -6.227      0.000      0.000
REMARK INTER + INTRA:         -10.549
REMARK INTER:                  -9.408
REMARK INTRA:                  -1.141
REMARK UNBOUND:                -0.681
REMARK  Name = amino_phos_minimized.pdb
REMARK  12 active torsions:
REMARK  status: ('A' for Active; 'I' for Inactive)
REMARK    1  A    between atoms: C_1  and  C_2
REMARK    2  A    between atoms: C_1  and  C_5
REMARK    3  A    between atoms: C_2  and  C_3
REMARK    4  A    between atoms: C_3  and  N_4
REMARK    5  A    between atoms: C_5  and  C_6
REMARK    6  A    between atoms: C_6  and  O_7
REMARK    7  A    between atoms: O_7  and  P_8
REMARK    8  A    between atoms: P_8  and  O_10
REMARK    9  A    between atoms: P_8  and  O_11
REMARK   10  A    between atoms: O_11  and  P_12
REMARK   11  A    between atoms: P_12  and  O_14
REMARK   12  A    between atoms: P_12  and  O_15
REMARK                            x       y       z     vdW  Elec       q    Type
REMARK                         _______ _______ _______ _____ _____    ______ ____
ROOT
ATOM      1  P   UNL     1     -24.122  37.062  -7.612  0.00  0.00    +0.000 P 
ATOM      2  O   UNL     1     -23.071  37.213  -8.666  0.00  0.00    +0.000 OA
ENDROOT
BRANCH   1   3
ATOM      3  O   UNL     1     -24.088  38.194  -6.478  0.00  0.00    +0.000 OA
ATOM      4  H   UNL     1     -23.694  37.862  -5.652  0.00  0.00    +0.000 HD
ENDBRANCH   1   3
BRANCH   1   5
ATOM      5  O   UNL     1     -25.648  37.149  -8.085  0.00  0.00    +0.000 OA
BRANCH   5   6
ATOM      6  C   UNL     1     -26.323  38.385  -7.924  0.00  0.00    +0.000 C 
BRANCH   6   7
ATOM      7  C   UNL     1     -26.734  38.911  -9.295  0.00  0.00    +0.000 C 
BRANCH   7   8
ATOM      8  C   UNL     1     -27.654  37.934 -10.036  0.00  0.00    +0.000 C 
BRANCH   8   9
ATOM      9  C   UNL     1     -27.055  37.520 -11.382  0.00  0.00    +0.000 C 
BRANCH   9  10
ATOM     10  C   UNL     1     -25.614  38.012 -11.520  0.00  0.00    +0.000 C 
BRANCH  10  11
ATOM     11  N   UNL     1     -24.665  36.925 -11.293  0.00  0.00    +0.000 NA
ATOM     12  H   UNL     1     -24.996  36.080 -11.758  0.00  0.00    +0.000 HD
ATOM     13  H   UNL     1     -23.771  37.152 -11.729  0.00  0.00    +0.000 HD
ENDBRANCH  10  11
ENDBRANCH   9  10
ENDBRANCH   8   9
ENDBRANCH   7   8
ENDBRANCH   6   7
ENDBRANCH   5   6
ENDBRANCH   1   5
BRANCH   1  14
ATOM     14  O   UNL     1     -24.007  35.734  -6.751  0.00  0.00    +0.000 OA
BRANCH  14  15
ATOM     15  P   UNL     1     -22.865  35.602  -5.656  0.00  0.00    +0.000 P 
ATOM     16  O   UNL     1     -22.800  36.655  -4.606  0.00  0.00    +0.000 OA
BRANCH  15  17
ATOM     17  O   UNL     1     -23.016  34.114  -5.097  0.00  0.00    +0.000 OA
ATOM     18  H   UNL     1     -22.225  33.837  -4.584  0.00  0.00    +0.000 HD
ENDBRANCH  15  17
BRANCH  15  19
ATOM     19  O   UNL     1     -21.525  35.486  -6.520  0.00  0.00    +0.000 OA
ATOM     20  H   UNL     1     -20.741  35.402  -5.950  0.00  0.00    +0.000 HD
ENDBRANCH  15  19
ENDBRANCH  14  15
ENDBRANCH   1  14
TORSDOF 12
ENDMDL
MODEL 2
REMARK VINA RESULT:    -6.072      1.652      2.531
REMARK INTER + INTRA:         -10.303
REMARK INTER:                  -9.056
REMARK INTRA:                  -1.248
REMARK UNBOUND:                -0.681
REMARK  Name = amino_phos_minimized.pdb
REMARK  12 active torsions:
REMARK  status: ('A' for Active; 'I' for Inactive)
REMARK    1  A    between atoms: C_1  and  C_2
REMARK    2  A    between atoms: C_1  and  C_5
REMARK    3  A    between atoms: C_2  and  C_3
REMARK    4  A    between atoms: C_3  and  N_4
REMARK    5  A    between atoms: C_5  and  C_6
REMARK    6  A    between atoms: C_6  and  O_7
REMARK    7  A    between atoms: O_7  and  P_8
REMARK    8  A    between atoms: P_8  and  O_10
REMARK    9  A    between atoms: P_8  and  O_11
REMARK   10  A    between atoms: O_11  and  P_12
REMARK   11  A    between atoms: P_12  and  O_14
REMARK   12  A    between atoms: P_12  and  O_15
REMARK                            x       y       z     vdW  Elec       q    Type
REMARK                         _______ _______ _______ _____ _____    ______ ____
ROOT
ATOM      1  P   UNL     1     -24.286  36.836  -7.595  0.00  0.00    +0.000 P 
ATOM      2  O   UNL     1     -25.696  37.320  -7.471  0.00  0.00    +0.000 OA
ENDROOT
BRANCH   1   3
ATOM      3  O   UNL     1     -24.090  35.280  -7.270  0.00  0.00    +0.000 OA
ATOM      4  H   UNL     1     -23.960  34.757  -8.082  0.00  0.00    +0.000 HD
ENDBRANCH   1   3
BRANCH   1   5
ATOM      5  O   UNL     1     -23.605  36.935  -9.040  0.00  0.00    +0.000 OA
BRANCH   5   6
ATOM      6  C   UNL     1     -23.640  38.185  -9.706  0.00  0.00    +0.000 C 
BRANCH   6   7
ATOM      7  C   UNL     1     -24.447  38.043 -10.991  0.00  0.00    +0.000 C 
BRANCH   7   8
ATOM      8  C   UNL     1     -25.899  38.503 -10.814  0.00  0.00    +0.000 C 
BRANCH   8   9
ATOM      9  C   UNL     1     -26.865  37.590 -11.572  0.00  0.00    +0.000 C 
BRANCH   9  10
ATOM     10  C   UNL     1     -28.200  37.466 -10.838  0.00  0.00    +0.000 C 
BRANCH  10  11
ATOM     11  N   UNL     1     -28.086  37.935  -9.459  0.00  0.00    +0.000 NA
ATOM     12  H   UNL     1     -28.858  37.560  -8.907  0.00  0.00    +0.000 HD
ATOM     13  H   UNL     1     -27.235  37.561  -9.039  0.00  0.00    +0.000 HD
ENDBRANCH  10  11
ENDBRANCH   9  10
ENDBRANCH   8   9
ENDBRANCH   7   8
ENDBRANCH   6   7
ENDBRANCH   5   6
ENDBRANCH   1   5
BRANCH   1  14
ATOM     14  O   UNL     1     -23.265  37.512  -6.585  0.00  0.00    +0.000 OA
BRANCH  14  15
ATOM     15  P   UNL     1     -21.976  36.711  -6.115  0.00  0.00    +0.000 P 
ATOM     16  O   UNL     1     -22.154  35.707  -5.031  0.00  0.00    +0.000 OA
BRANCH  15  17
ATOM     17  O   UNL     1     -21.352  36.129  -7.465  0.00  0.00    +0.000 OA
ATOM     18  H   UNL     1     -20.968  36.841  -8.023  0.00  0.00    +0.000 HD
ENDBRANCH  15  17
BRANCH  15  19
ATOM     19  O   UNL     1     -20.930  37.862  -5.748  0.00  0.00    +0.000 OA
ATOM     20  H   UNL     1     -21.120  38.249  -4.876  0.00  0.00    +0.000 HD
ENDBRANCH  15  19
ENDBRANCH  14  15
ENDBRANCH   1  14
TORSDOF 12
ENDMDL
MODEL 3
REMARK VINA RESULT:    -5.714      4.665      5.810
REMARK INTER + INTRA:          -9.736
REMARK INTER:                  -8.532
REMARK INTRA:                  -1.204
REMARK UNBOUND:                -0.681
REMARK  Name = amino_phos_minimized.pdb
REMARK  12 active torsions:
REMARK  status: ('A' for Active; 'I' for Inactive)
REMARK    1  A    between atoms: C_1  and  C_2
REMARK    2  A    between atoms: C_1  and  C_5
REMARK    3  A    between atoms: C_2  and  C_3
REMARK    4  A    between atoms: C_3  and  N_4
REMARK    5  A    between atoms: C_5  and  C_6
REMARK    6  A    between atoms: C_6  and  O_7
REMARK    7  A    between atoms: O_7  and  P_8
REMARK    8  A    between atoms: P_8  and  O_10
REMARK    9  A    between atoms: P_8  and  O_11
REMARK   10  A    between atoms: O_11  and  P_12
REMARK   11  A    between atoms: P_12  and  O_14
REMARK   12  A    between atoms: P_12  and  O_15
REMARK                            x       y       z     vdW  Elec       q    Type
REMARK                         _______ _______ _______ _____ _____    ______ ____
ROOT
ATOM      1  P   UNL     1     -22.709  39.169 -11.304  0.00  0.00    +0.000 P 
ATOM      2  O   UNL     1     -22.909  40.642 -11.138  0.00  0.00    +0.000 OA
ENDROOT
BRANCH   1   3
ATOM      3  O   UNL     1     -21.639  38.769 -12.427  0.00  0.00    +0.000 OA
ATOM      4  H   UNL     1     -22.014  38.147 -13.075  0.00  0.00    +0.000 HD
ENDBRANCH   1   3
BRANCH   1   5
ATOM      5  O   UNL     1     -22.143  38.363 -10.042  0.00  0.00    +0.000 OA
BRANCH   5   6
ATOM      6  C   UNL     1     -21.656  39.110  -8.941  0.00  0.00    +0.000 C 
BRANCH   6   7
ATOM      7  C   UNL     1     -21.038  38.157  -7.925  0.00  0.00    +0.000 C 
BRANCH   7   8
ATOM      8  C   UNL     1     -22.076  37.613  -6.937  0.00  0.00    +0.000 C 
BRANCH   8   9
ATOM      9  C   UNL     1     -21.774  36.161  -6.560  0.00  0.00    +0.000 C 
BRANCH   9  10
ATOM     10  C   UNL     1     -23.049  35.415  -6.166  0.00  0.00    +0.000 C 
BRANCH  10  11
ATOM     11  N   UNL     1     -23.976  35.331  -7.293  0.00  0.00    +0.000 NA
ATOM     12  H   UNL     1     -24.935  35.326  -6.945  0.00  0.00    +0.000 HD
ATOM     13  H   UNL     1     -23.892  36.168  -7.870  0.00  0.00    +0.000 HD
ENDBRANCH  10  11
ENDBRANCH   9  10
ENDBRANCH   8   9
ENDBRANCH   7   8
ENDBRANCH   6   7
ENDBRANCH   5   6
ENDBRANCH   1   5
BRANCH   1  14
ATOM     14  O   UNL     1     -23.998  38.378 -11.784  0.00  0.00    +0.000 OA
BRANCH  14  15
ATOM     15  P   UNL     1     -25.109  37.968 -10.726  0.00  0.00    +0.000 P 
ATOM     16  O   UNL     1     -26.451  37.599 -11.254  0.00  0.00    +0.000 OA
BRANCH  15  17
ATOM     17  O   UNL     1     -24.414  36.843  -9.831  0.00  0.00    +0.000 OA
ATOM     18  H   UNL     1     -25.049  36.439  -9.199  0.00  0.00    +0.000 HD
ENDBRANCH  15  17
BRANCH  15  19
ATOM     19  O   UNL     1     -25.144  39.206  -9.717  0.00  0.00    +0.000 OA
ATOM     20  H   UNL     1     -24.932  40.040 -10.170  0.00  0.00    +0.000 HD
ENDBRANCH  15  19
ENDBRANCH  14  15
ENDBRANCH   1  14
TORSDOF 12
ENDMDL
MODEL 4
REMARK VINA RESULT:    -5.533      2.028      2.990
REMARK INTER + INTRA:          -9.449
REMARK INTER:                  -7.894
REMARK INTRA:                  -1.555
REMARK UNBOUND:                -0.681
REMARK  Name = amino_phos_minimized.pdb
REMARK  12 active torsions:
REMARK  status: ('A' for Active; 'I' for Inactive)
REMARK    1  A    between atoms: C_1  and  C_2
REMARK    2  A    between atoms: C_1  and  C_5
REMARK    3  A    between atoms: C_2  and  C_3
REMARK    4  A    between atoms: C_3  and  N_4
REMARK    5  A    between atoms: C_5  and  C_6
REMARK    6  A    between atoms: C_6  and  O_7
REMARK    7  A    between atoms: O_7  and  P_8
REMARK    8  A    between atoms: P_8  and  O_10
REMARK    9  A    between atoms: P_8  and  O_11
REMARK   10  A    between atoms: O_11  and  P_12
REMARK   11  A    between atoms: P_12  and  O_14
REMARK   12  A    between atoms: P_12  and  O_15
REMARK                            x       y       z     vdW  Elec       q    Type
REMARK                         _______ _______ _______ _____ _____    ______ ____
ROOT
ATOM      1  P   UNL     1     -23.071  36.487  -6.691  0.00  0.00    +0.000 P 
ATOM      2  O   UNL     1     -23.200  37.285  -5.432  0.00  0.00    +0.000 OA
ENDROOT
BRANCH   1   3
ATOM      3  O   UNL     1     -23.508  34.952  -6.549  0.00  0.00    +0.000 OA
ATOM      4  H   UNL     1     -23.366  34.621  -5.645  0.00  0.00    +0.000 HD
ENDBRANCH   1   3
BRANCH   1   5
ATOM      5  O   UNL     1     -23.962  36.945  -7.939  0.00  0.00    +0.000 OA
BRANCH   5   6
ATOM      6  C   UNL     1     -25.167  37.641  -7.675  0.00  0.00    +0.000 C 
BRANCH   6   7
ATOM      7  C   UNL     1     -25.983  37.732  -8.959  0.00  0.00    +0.000 C 
BRANCH   7   8
ATOM      8  C   UNL     1     -25.197  37.234 -10.178  0.00  0.00    +0.000 C 
BRANCH   8   9
ATOM      9  C   UNL     1     -24.982  38.357 -11.195  0.00  0.00    +0.000 C 
BRANCH   9  10
ATOM     10  C   UNL     1     -23.771  39.212 -10.826  0.00  0.00    +0.000 C 
BRANCH  10  11
ATOM     11  N   UNL     1     -22.617  38.377 -10.503  0.00  0.00    +0.000 NA
ATOM     12  H   UNL     1     -22.881  37.689  -9.798  0.00  0.00    +0.000 HD
ATOM     13  H   UNL     1     -22.340  37.841 -11.326  0.00  0.00    +0.000 HD
ENDBRANCH  10  11
ENDBRANCH   9  10
ENDBRANCH   8   9
ENDBRANCH   7   8
ENDBRANCH   6   7
ENDBRANCH   5   6
ENDBRANCH   1   5
BRANCH   1  14
ATOM     14  O   UNL     1     -21.588  36.355  -7.239  0.00  0.00    +0.000 OA
BRANCH  14  15
ATOM     15  P   UNL     1     -20.697  37.657  -7.422  0.00  0.00    +0.000 P 
ATOM     16  O   UNL     1     -19.719  37.972  -6.345  0.00  0.00    +0.000 OA
BRANCH  15  17
ATOM     17  O   UNL     1     -20.057  37.503  -8.877  0.00  0.00    +0.000 OA
ATOM     18  H   UNL     1     -19.745  38.366  -9.229  0.00  0.00    +0.000 HD
ENDBRANCH  15  17
BRANCH  15  19
ATOM     19  O   UNL     1     -21.769  38.816  -7.664  0.00  0.00    +0.000 OA
ATOM     20  H   UNL     1     -21.890  39.360  -6.866  0.00  0.00    +0.000 HD
ENDBRANCH  15  19
ENDBRANCH  14  15
ENDBRANCH   1  14
TORSDOF 12
ENDMDL
MODEL 5
REMARK VINA RESULT:    -5.485      2.635      3.466
REMARK INTER + INTRA:          -9.372
REMARK INTER:                  -7.944
REMARK INTRA:                  -1.428
REMARK UNBOUND:                -0.681
REMARK  Name = amino_phos_minimized.pdb
REMARK  12 active torsions:
REMARK  status: ('A' for Active; 'I' for Inactive)
REMARK    1  A    between atoms: C_1  and  C_2
REMARK    2  A    between atoms: C_1  and  C_5
REMARK    3  A    between atoms: C_2  and  C_3
REMARK    4  A    between atoms: C_3  and  N_4
REMARK    5  A    between atoms: C_5  and  C_6
REMARK    6  A    between atoms: C_6  and  O_7
REMARK    7  A    between atoms: O_7  and  P_8
REMARK    8  A    between atoms: P_8  and  O_10
REMARK    9  A    between atoms: P_8  and  O_11
REMARK   10  A    between atoms: O_11  and  P_12
REMARK   11  A    between atoms: P_12  and  O_14
REMARK   12  A    between atoms: P_12  and  O_15
REMARK                            x       y       z     vdW  Elec       q    Type
REMARK                         _______ _______ _______ _____ _____    ______ ____
ROOT
ATOM      1  P   UNL     1     -24.260  36.936  -7.666  0.00  0.00    +0.000 P 
ATOM      2  O   UNL     1     -25.683  37.345  -7.455  0.00  0.00    +0.000 OA
ENDROOT
BRANCH   1   3
ATOM      3  O   UNL     1     -23.989  35.367  -7.487  0.00  0.00    +0.000 OA
ATOM      4  H   UNL     1     -24.714  34.930  -7.005  0.00  0.00    +0.000 HD
ENDBRANCH   1   3
BRANCH   1   5
ATOM      5  O   UNL     1     -23.634  37.190  -9.117  0.00  0.00    +0.000 OA
BRANCH   5   6
ATOM      6  C   UNL     1     -24.418  37.897 -10.063  0.00  0.00    +0.000 C 
BRANCH   6   7
ATOM      7  C   UNL     1     -23.496  38.705 -10.970  0.00  0.00    +0.000 C 
BRANCH   7   8
ATOM      8  C   UNL     1     -23.282  40.131 -10.451  0.00  0.00    +0.000 C 
BRANCH   8   9
ATOM      9  C   UNL     1     -21.800  40.410 -10.194  0.00  0.00    +0.000 C 
BRANCH   9  10
ATOM     10  C   UNL     1     -20.950  39.166 -10.450  0.00  0.00    +0.000 C 
BRANCH  10  11
ATOM     11  N   UNL     1     -20.614  38.493  -9.198  0.00  0.00    +0.000 NA
ATOM     12  H   UNL     1     -20.806  37.495  -9.285  0.00  0.00    +0.000 HD
ATOM     13  H   UNL     1     -19.612  38.571  -9.025  0.00  0.00    +0.000 HD
ENDBRANCH  10  11
ENDBRANCH   9  10
ENDBRANCH   8   9
ENDBRANCH   7   8
ENDBRANCH   6   7
ENDBRANCH   5   6
ENDBRANCH   1   5
BRANCH   1  14
ATOM     14  O   UNL     1     -23.233  37.564  -6.632  0.00  0.00    +0.000 OA
BRANCH  14  15
ATOM     15  P   UNL     1     -21.950  36.735  -6.195  0.00  0.00    +0.000 P 
ATOM     16  O   UNL     1     -22.114  35.762  -5.081  0.00  0.00    +0.000 OA
BRANCH  15  17
ATOM     17  O   UNL     1     -21.398  36.104  -7.554  0.00  0.00    +0.000 OA
ATOM     18  H   UNL     1     -20.849  35.306  -7.387  0.00  0.00    +0.000 HD
ENDBRANCH  15  17
BRANCH  15  19
ATOM     19  O   UNL     1     -20.857  37.862  -5.897  0.00  0.00    +0.000 OA
ATOM     20  H   UNL     1     -20.753  38.012  -4.941  0.00  0.00    +0.000 HD
ENDBRANCH  15  19
ENDBRANCH  14  15
ENDBRANCH   1  14
TORSDOF 12
ENDMDL
MODEL 6
REMARK VINA RESULT:    -5.469      1.406      2.119
REMARK INTER + INTRA:          -9.348
REMARK INTER:                  -8.275
REMARK INTRA:                  -1.073
REMARK UNBOUND:                -0.681
REMARK  Name = amino_phos_minimized.pdb
REMARK  12 active torsions:
REMARK  status: ('A' for Active; 'I' for Inactive)
REMARK    1  A    between atoms: C_1  and  C_2
REMARK    2  A    between atoms: C_1  and  C_5
REMARK    3  A    between atoms: C_2  and  C_3
REMARK    4  A    between atoms: C_3  and  N_4
REMARK    5  A    between atoms: C_5  and  C_6
REMARK    6  A    between atoms: C_6  and  O_7
REMARK    7  A    between atoms: O_7  and  P_8
REMARK    8  A    between atoms: P_8  and  O_10
REMARK    9  A    between atoms: P_8  and  O_11
REMARK   10  A    between atoms: O_11  and  P_12
REMARK   11  A    between atoms: P_12  and  O_14
REMARK   12  A    between atoms: P_12  and  O_15
REMARK                            x       y       z     vdW  Elec       q    Type
REMARK                         _______ _______ _______ _____ _____    ______ ____
ROOT
ATOM      1  P   UNL     1     -23.682  36.704  -7.347  0.00  0.00    +0.000 P 
ATOM      2  O   UNL     1     -23.752  35.665  -6.273  0.00  0.00    +0.000 OA
ENDROOT
BRANCH   1   3
ATOM      3  O   UNL     1     -23.851  36.131  -8.834  0.00  0.00    +0.000 OA
ATOM      4  H   UNL     1     -24.398  36.719  -9.385  0.00  0.00    +0.000 HD
ENDBRANCH   1   3
BRANCH   1   5
ATOM      5  O   UNL     1     -24.803  37.847  -7.331  0.00  0.00    +0.000 OA
BRANCH   5   6
ATOM      6  C   UNL     1     -24.533  39.051  -8.027  0.00  0.00    +0.000 C 
BRANCH   6   7
ATOM      7  C   UNL     1     -25.682  39.341  -8.986  0.00  0.00    +0.000 C 
BRANCH   7   8
ATOM      8  C   UNL     1     -26.634  38.147  -9.124  0.00  0.00    +0.000 C 
BRANCH   8   9
ATOM      9  C   UNL     1     -26.878  37.800 -10.594  0.00  0.00    +0.000 C 
BRANCH   9  10
ATOM     10  C   UNL     1     -25.636  38.073 -11.441  0.00  0.00    +0.000 C 
BRANCH  10  11
ATOM     11  N   UNL     1     -24.715  36.940 -11.400  0.00  0.00    +0.000 NA
ATOM     12  H   UNL     1     -24.516  36.697 -10.430  0.00  0.00    +0.000 HD
ATOM     13  H   UNL     1     -25.162  36.119 -11.808  0.00  0.00    +0.000 HD
ENDBRANCH  10  11
ENDBRANCH   9  10
ENDBRANCH   8   9
ENDBRANCH   7   8
ENDBRANCH   6   7
ENDBRANCH   5   6
ENDBRANCH   1   5
BRANCH   1  14
ATOM     14  O   UNL     1     -22.291  37.460  -7.445  0.00  0.00    +0.000 OA
BRANCH  14  15
ATOM     15  P   UNL     1     -21.229  37.309  -6.274  0.00  0.00    +0.000 P 
ATOM     16  O   UNL     1     -19.972  38.098  -6.386  0.00  0.00    +0.000 OA
BRANCH  15  17
ATOM     17  O   UNL     1     -22.065  37.576  -4.939  0.00  0.00    +0.000 OA
ATOM     18  H   UNL     1     -23.033  37.554  -5.107  0.00  0.00    +0.000 HD
ENDBRANCH  15  17
BRANCH  15  19
ATOM     19  O   UNL     1     -20.983  35.733  -6.188  0.00  0.00    +0.000 OA
ATOM     20  H   UNL     1     -21.823  35.245  -6.136  0.00  0.00    +0.000 HD
ENDBRANCH  15  19
ENDBRANCH  14  15
ENDBRANCH   1  14
TORSDOF 12
ENDMDL
MODEL 7
REMARK VINA RESULT:    -5.443      3.669      4.773
REMARK INTER + INTRA:          -9.307
REMARK INTER:                  -8.127
REMARK INTRA:                  -1.180
REMARK UNBOUND:                -0.681
REMARK  Name = amino_phos_minimized.pdb
REMARK  12 active torsions:
REMARK  status: ('A' for Active; 'I' for Inactive)
REMARK    1  A    between atoms: C_1  and  C_2
REMARK    2  A    between atoms: C_1  and  C_5
REMARK    3  A    between atoms: C_2  and  C_3
REMARK    4  A    between atoms: C_3  and  N_4
REMARK    5  A    between atoms: C_5  and  C_6
REMARK    6  A    between atoms: C_6  and  O_7
REMARK    7  A    between atoms: O_7  and  P_8
REMARK    8  A    between atoms: P_8  and  O_10
REMARK    9  A    between atoms: P_8  and  O_11
REMARK   10  A    between atoms: O_11  and  P_12
REMARK   11  A    between atoms: P_12  and  O_14
REMARK   12  A    between atoms: P_12  and  O_15
REMARK                            x       y       z     vdW  Elec       q    Type
REMARK                         _______ _______ _______ _____ _____    ______ ____
ROOT
ATOM      1  P   UNL     1     -24.136  37.986 -10.092  0.00  0.00    +0.000 P 
ATOM      2  O   UNL     1     -25.147  39.037  -9.754  0.00  0.00    +0.000 OA
ENDROOT
BRANCH   1   3
ATOM      3  O   UNL     1     -24.719  36.755 -10.935  0.00  0.00    +0.000 OA
ATOM      4  H   UNL     1     -25.519  37.005 -11.430  0.00  0.00    +0.000 HD
ENDBRANCH   1   3
BRANCH   1   5
ATOM      5  O   UNL     1     -22.902  38.429 -11.010  0.00  0.00    +0.000 OA
BRANCH   5   6
ATOM      6  C   UNL     1     -22.677  39.816 -11.195  0.00  0.00    +0.000 C 
BRANCH   6   7
ATOM      7  C   UNL     1     -21.864  40.349 -10.021  0.00  0.00    +0.000 C 
BRANCH   7   8
ATOM      8  C   UNL     1     -20.583  39.538  -9.790  0.00  0.00    +0.000 C 
BRANCH   8   9
ATOM      9  C   UNL     1     -20.526  38.989  -8.362  0.00  0.00    +0.000 C 
BRANCH   9  10
ATOM     10  C   UNL     1     -19.775  37.659  -8.311  0.00  0.00    +0.000 C 
BRANCH  10  11
ATOM     11  N   UNL     1     -20.607  36.610  -7.726  0.00  0.00    +0.000 NA
ATOM     12  H   UNL     1     -20.506  35.753  -8.269  0.00  0.00    +0.000 HD
ATOM     13  H   UNL     1     -20.272  36.388  -6.789  0.00  0.00    +0.000 HD
ENDBRANCH  10  11
ENDBRANCH   9  10
ENDBRANCH   8   9
ENDBRANCH   7   8
ENDBRANCH   6   7
ENDBRANCH   5   6
ENDBRANCH   1   5
BRANCH   1  14
ATOM     14  O   UNL     1     -23.503  37.252  -8.836  0.00  0.00    +0.000 OA
BRANCH  14  15
ATOM     15  P   UNL     1     -24.440  36.793  -7.638  0.00  0.00    +0.000 P 
ATOM     16  O   UNL     1     -24.440  37.635  -6.411  0.00  0.00    +0.000 OA
BRANCH  15  17
ATOM     17  O   UNL     1     -25.876  36.591  -8.307  0.00  0.00    +0.000 OA
ATOM     18  H   UNL     1     -26.169  35.655  -8.260  0.00  0.00    +0.000 HD
ENDBRANCH  15  17
BRANCH  15  19
ATOM     19  O   UNL     1     -23.995  35.282  -7.370  0.00  0.00    +0.000 OA
ATOM     20  H   UNL     1     -24.025  35.066  -6.421  0.00  0.00    +0.000 HD
ENDBRANCH  15  19
ENDBRANCH  14  15
ENDBRANCH   1  14
TORSDOF 12
ENDMDL
MODEL 8
REMARK VINA RESULT:    -5.401      3.549      5.131
REMARK INTER + INTRA:          -9.240
REMARK INTER:                  -8.010
REMARK INTRA:                  -1.230
REMARK UNBOUND:                -0.681
REMARK  Name = amino_phos_minimized.pdb
REMARK  12 active torsions:
REMARK  status: ('A' for Active; 'I' for Inactive)
REMARK    1  A    between atoms: C_1  and  C_2
REMARK    2  A    between atoms: C_1  and  C_5
REMARK    3  A    between atoms: C_2  and  C_3
REMARK    4  A    between atoms: C_3  and  N_4
REMARK    5  A    between atoms: C_5  and  C_6
REMARK    6  A    between atoms: C_6  and  O_7
REMARK    7  A    between atoms: O_7  and  P_8
REMARK    8  A    between atoms: P_8  and  O_10
REMARK    9  A    between atoms: P_8  and  O_11
REMARK   10  A    between atoms: O_11  and  P_12
REMARK   11  A    between atoms: P_12  and  O_14
REMARK   12  A    between atoms: P_12  and  O_15
REMARK                            x       y       z     vdW  Elec       q    Type
REMARK                         _______ _______ _______ _____ _____    ______ ____
ROOT
ATOM      1  P   UNL     1     -22.068  39.263 -10.069  0.00  0.00    +0.000 P 
ATOM      2  O   UNL     1     -22.198  40.684 -10.520  0.00  0.00    +0.000 OA
ENDROOT
BRANCH   1   3
ATOM      3  O   UNL     1     -22.309  39.042  -8.501  0.00  0.00    +0.000 OA
ATOM      4  H   UNL     1     -22.319  39.887  -8.017  0.00  0.00    +0.000 HD
ENDBRANCH   1   3
BRANCH   1   5
ATOM      5  O   UNL     1     -23.095  38.204 -10.689  0.00  0.00    +0.000 OA
BRANCH   5   6
ATOM      6  C   UNL     1     -24.393  38.659 -11.031  0.00  0.00    +0.000 C 
BRANCH   6   7
ATOM      7  C   UNL     1     -25.373  37.497 -10.927  0.00  0.00    +0.000 C 
BRANCH   7   8
ATOM      8  C   UNL     1     -26.367  37.681  -9.774  0.00  0.00    +0.000 C 
BRANCH   8   9
ATOM      9  C   UNL     1     -25.640  37.859  -8.440  0.00  0.00    +0.000 C 
BRANCH   9  10
ATOM     10  C   UNL     1     -25.133  36.521  -7.903  0.00  0.00    +0.000 C 
BRANCH  10  11
ATOM     11  N   UNL     1     -23.730  36.313  -8.254  0.00  0.00    +0.000 NA
ATOM     12  H   UNL     1     -23.134  36.691  -7.517  0.00  0.00    +0.000 HD
ATOM     13  H   UNL     1     -23.530  35.313  -8.289  0.00  0.00    +0.000 HD
ENDBRANCH  10  11
ENDBRANCH   9  10
ENDBRANCH   8   9
ENDBRANCH   7   8
ENDBRANCH   6   7
ENDBRANCH   5   6
ENDBRANCH   1   5
BRANCH   1  14
ATOM     14  O   UNL     1     -20.623  38.637 -10.269  0.00  0.00    +0.000 OA
BRANCH  14  15
ATOM     15  P   UNL     1     -19.950  38.653 -11.708  0.00  0.00    +0.000 P 
ATOM     16  O   UNL     1     -18.983  39.747 -11.997  0.00  0.00    +0.000 OA
BRANCH  15  17
ATOM     17  O   UNL     1     -19.363  37.180 -11.891  0.00  0.00    +0.000 OA
ATOM     18  H   UNL     1     -19.531  36.621 -11.100  0.00  0.00    +0.000 HD
ENDBRANCH  15  17
BRANCH  15  19
ATOM     19  O   UNL     1     -21.197  38.628 -12.707  0.00  0.00    +0.000 OA
ATOM     20  H   UNL     1     -20.928  38.357 -13.602  0.00  0.00    +0.000 HD
ENDBRANCH  15  19
ENDBRANCH  14  15
ENDBRANCH   1  14
TORSDOF 12
ENDMDL
MODEL 9
REMARK VINA RESULT:    -5.243      3.823      5.071
REMARK INTER + INTRA:          -8.989
REMARK INTER:                  -8.308
REMARK INTRA:                  -0.681
REMARK UNBOUND:                -0.681
REMARK  Name = amino_phos_minimized.pdb
REMARK  12 active torsions:
REMARK  status: ('A' for Active; 'I' for Inactive)
REMARK    1  A    between atoms: C_1  and  C_2
REMARK    2  A    between atoms: C_1  and  C_5
REMARK    3  A    between atoms: C_2  and  C_3
REMARK    4  A    between atoms: C_3  and  N_4
REMARK    5  A    between atoms: C_5  and  C_6
REMARK    6  A    between atoms: C_6  and  O_7
REMARK    7  A    between atoms: O_7  and  P_8
REMARK    8  A    between atoms: P_8  and  O_10
REMARK    9  A    between atoms: P_8  and  O_11
REMARK   10  A    between atoms: O_11  and  P_12
REMARK   11  A    between atoms: P_12  and  O_14
REMARK   12  A    between atoms: P_12  and  O_15
REMARK                            x       y       z     vdW  Elec       q    Type
REMARK                         _______ _______ _______ _____ _____    ______ ____
ROOT
ATOM      1  P   UNL     1     -24.496  38.104 -10.610  0.00  0.00    +0.000 P 
ATOM      2  O   UNL     1     -25.202  39.246  -9.949  0.00  0.00    +0.000 OA
ENDROOT
BRANCH   1   3
ATOM      3  O   UNL     1     -25.228  37.542 -11.919  0.00  0.00    +0.000 OA
ATOM      4  H   UNL     1     -24.587  37.244 -12.589  0.00  0.00    +0.000 HD
ENDBRANCH   1   3
BRANCH   1   5
ATOM      5  O   UNL     1     -23.026  38.386 -11.178  0.00  0.00    +0.000 OA
BRANCH   5   6
ATOM      6  C   UNL     1     -22.488  39.685 -11.010  0.00  0.00    +0.000 C 
BRANCH   6   7
ATOM      7  C   UNL     1     -22.146  40.264 -12.378  0.00  0.00    +0.000 C 
BRANCH   7   8
ATOM      8  C   UNL     1     -20.672  40.675 -12.479  0.00  0.00    +0.000 C 
BRANCH   8   9
ATOM      9  C   UNL     1     -19.787  39.781 -11.607  0.00  0.00    +0.000 C 
BRANCH   9  10
ATOM     10  C   UNL     1     -19.068  38.727 -12.448  0.00  0.00    +0.000 C 
BRANCH  10  11
ATOM     11  N   UNL     1     -19.483  37.379 -12.065  0.00  0.00    +0.000 NA
ATOM     12  H   UNL     1     -19.766  36.861 -12.897  0.00  0.00    +0.000 HD
ATOM     13  H   UNL     1     -18.687  36.872 -11.678  0.00  0.00    +0.000 HD
ENDBRANCH  10  11
ENDBRANCH   9  10
ENDBRANCH   8   9
ENDBRANCH   7   8
ENDBRANCH   6   7
ENDBRANCH   5   6
ENDBRANCH   1   5
BRANCH   1  14
ATOM     14  O   UNL     1     -24.375  36.798  -9.717  0.00  0.00    +0.000 OA
BRANCH  14  15
ATOM     15  P   UNL     1     -24.418  36.919  -8.134  0.00  0.00    +0.000 P 
ATOM     16  O   UNL     1     -23.403  37.796  -7.489  0.00  0.00    +0.000 OA
BRANCH  15  17
ATOM     17  O   UNL     1     -25.933  37.300  -7.802  0.00  0.00    +0.000 OA
ATOM     18  H   UNL     1     -26.167  38.190  -8.148  0.00  0.00    +0.000 HD
ENDBRANCH  15  17
BRANCH  15  19
ATOM     19  O   UNL     1     -24.353  35.402  -7.637  0.00  0.00    +0.000 OA
ATOM     20  H   UNL     1     -24.714  35.306  -6.739  0.00  0.00    +0.000 HD
ENDBRANCH  15  19
ENDBRANCH  14  15
ENDBRANCH   1  14
TORSDOF 12
ENDMDL
