REMARK  Name = amino_phos_minimized.pdb
REMARK  12 active torsions:
REMARK  status: ('A' for Active; 'I' for Inactive)
REMARK    1  A    between atoms: C_1  and  C_2
REMARK    2  A    between atoms: C_1  and  C_5
REMARK    3  A    between atoms: C_2  and  C_3
REMARK    4  A    between atoms: C_3  and  N_4
REMARK    5  A    between atoms: C_5  and  C_6
REMARK    6  A    between atoms: C_6  and  O_7
REMARK    7  A    between atoms: O_7  and  P_8
REMARK    8  A    between atoms: P_8  and  O_10
REMARK    9  A    between atoms: P_8  and  O_11
REMARK   10  A    between atoms: O_11  and  P_12
REMARK   11  A    between atoms: P_12  and  O_14
REMARK   12  A    between atoms: P_12  and  O_15
REMARK                            x       y       z     vdW  Elec       q    Type
REMARK                         _______ _______ _______ _____ _____    ______ ____
ROOT
ATOM      1  P   UNL     1      -2.147  -1.030   1.757  0.00  0.00    +0.000 P 
ATOM      2  O   UNL     1      -2.829  -2.337   1.502  0.00  0.00    +0.000 OA
ENDROOT
BRANCH   1   3
ATOM      3  O   UNL     1      -1.994  -0.655   3.307  0.00  0.00    +0.000 OA
ATOM      4  H   UNL     1      -1.538   0.197   3.427  0.00  0.00    +0.000 HD
ENDBRANCH   1   3
BRANCH   1   5
ATOM      5  O   UNL     1      -0.633  -0.887   1.257  0.00  0.00    +0.000 OA
BRANCH   5   6
ATOM      6  C   UNL     1      -0.247  -1.603   0.097  0.00  0.00    +0.000 C 
BRANCH   6   7
ATOM      7  C   UNL     1       1.211  -1.290  -0.220  0.00  0.00    +0.000 C 
BRANCH   7   8
ATOM      8  C   UNL     1       1.415   0.180  -0.605  0.00  0.00    +0.000 C 
BRANCH   8   9
ATOM      9  C   UNL     1       2.894   0.489  -0.846  0.00  0.00    +0.000 C 
BRANCH   9  10
ATOM     10  C   UNL     1       3.090   1.934  -1.303  0.00  0.00    +0.000 C 
BRANCH  10  11
ATOM     11  N   UNL     1       4.508   2.244  -1.468  0.00  0.00    +0.000 NA
ATOM     12  H   UNL     1       4.992   2.110  -0.580  0.00  0.00    +0.000 HD
ATOM     13  H   UNL     1       4.931   1.582  -2.119  0.00  0.00    +0.000 HD
ENDBRANCH  10  11
ENDBRANCH   9  10
ENDBRANCH   8   9
ENDBRANCH   7   8
ENDBRANCH   6   7
ENDBRANCH   5   6
ENDBRANCH   1   5
BRANCH   1  14
ATOM     14  O   UNL     1      -2.915   0.237   1.189  0.00  0.00    +0.000 OA
BRANCH  14  15
ATOM     15  P   UNL     1      -3.868   0.080  -0.072  0.00  0.00    +0.000 P 
ATOM     16  O   UNL     1      -3.252  -0.405  -1.337  0.00  0.00    +0.000 OA
BRANCH  15  17
ATOM     17  O   UNL     1      -5.088  -0.805   0.456  0.00  0.00    +0.000 OA
ATOM     18  H   UNL     1      -4.836  -1.750   0.551  0.00  0.00    +0.000 HD
ENDBRANCH  15  17
BRANCH  15  19
ATOM     19  O   UNL     1      -4.551   1.518  -0.210  0.00  0.00    +0.000 OA
ATOM     20  H   UNL     1      -5.124   1.565  -0.995  0.00  0.00    +0.000 HD
ENDBRANCH  15  19
ENDBRANCH  14  15
ENDBRANCH   1  14
TORSDOF 12
