HEM
 OpenBabel08012211223D

 73 80  0  0  0  0  0  0  0  0999 V2000
  -62.3017   11.5722   25.6142 C   0  0  0  0  0  0  0  0  0  0  0  0
  -58.1179   10.9830   24.4830 C   0  0  0  0  0  0  0  0  0  0  0  0
  -58.7333   14.7586   25.9944 C   0  0  0  0  0  0  0  0  0  0  0  0
  -61.3586   14.2708   22.6295 C   0  0  0  0  0  0  0  0  0  0  0  0
  -61.1690   11.7714   26.1344 C   0  0  0  0  0  0  0  0  0  0  0  0
  -60.6711   10.3515   26.4907 C   0  0  0  0  0  0  0  0  0  0  0  0
  -59.3164   10.2593   26.2932 C   0  0  0  0  0  0  0  0  0  0  0  0
  -58.9686   11.2386   25.3768 C   0  0  0  0  0  0  0  0  0  0  0  0
  -58.4989    9.0257   26.6102 C   0  0  0  0  0  0  0  0  0  0  0  0
  -61.4096    8.8316   26.3307 C   0  0  0  0  0  0  0  0  0  0  0  0
  -60.8394    7.5625   25.4006 C   0  0  0  0  0  0  0  0  0  0  0  0
  -61.5839    6.2094   25.4432 C   0  0  0  0  0  0  0  0  0  0  0  0
  -61.1285    5.2384   24.8400 O   0  0  0  0  0  0  0  0  0  0  0  0
  -62.7047    6.0399   26.1648 O   0  0  0  0  0  0  0  0  0  0  0  0
  -58.1632   12.0416   23.9212 C   0  0  0  0  0  0  0  0  0  0  0  0
  -56.7379   12.6652   24.3084 C   0  0  0  0  0  0  0  0  0  0  0  0
  -56.8981   13.9349   24.6456 C   0  0  0  0  0  0  0  0  0  0  0  0
  -58.3644   14.0611   24.9419 C   0  0  0  0  0  0  0  0  0  0  0  0
  -55.6049   12.0237   25.2565 C   0  0  0  0  0  0  0  0  0  0  0  0
  -55.8318   14.9395   25.1844 C   0  0  0  0  0  0  0  0  0  0  0  0
  -54.4905   14.8049   25.4117 C   0  0  0  0  0  0  0  0  0  0  0  0
  -59.9204   14.7119   25.7893 C   0  0  0  0  0  0  0  0  0  0  0  0
  -60.3461   16.0552   25.2371 C   0  0  0  0  0  0  0  0  0  0  0  0
  -61.2707   15.9245   24.1829 C   0  0  0  0  0  0  0  0  0  0  0  0
  -61.1720   14.5813   23.7601 C   0  0  0  0  0  0  0  0  0  0  0  0
  -59.4034   17.3005   24.9203 C   0  0  0  0  0  0  0  0  0  0  0  0
  -61.9138   16.9952   23.2659 C   0  0  0  0  0  0  0  0  0  0  0  0
  -61.5186   18.1904   22.7496 C   0  0  0  0  0  0  0  0  0  0  0  0
  -61.1858   13.0252   22.7748 C   0  0  0  0  0  0  0  0  0  0  0  0
  -62.6800   12.4591   22.5409 C   0  0  0  0  0  0  0  0  0  0  0  0
  -62.9695   11.4979   23.4021 C   0  0  0  0  0  0  0  0  0  0  0  0
  -61.9647   11.6995   24.4520 C   0  0  0  0  0  0  0  0  0  0  0  0
  -63.9983   13.3426   22.2942 C   0  0  0  0  0  0  0  0  0  0  0  0
  -64.3661   10.7713   23.6000 C   0  0  0  0  0  0  0  0  0  0  0  0
  -64.7546    9.8104   22.4385 C   0  0  0  0  0  0  0  0  0  0  0  0
  -66.0651    9.0763   22.6709 C   0  0  0  0  0  0  0  0  0  0  0  0
  -66.2434    8.4304   23.6923 O   0  0  0  0  0  0  0  0  0  0  0  0
  -67.0198    9.0704   21.7171 O   0  0  0  0  0  0  0  0  0  0  0  0
  -60.0037   12.4936   25.2110 N   0  0  0  0  0  0  0  0  0  0  0  0
  -59.4727   13.0799   24.3129 N   0  0  0  0  0  0  0  0  0  0  0  0
  -60.4644   13.5188   24.7931 N   0  0  0  0  0  0  0  0  0  0  0  0
  -60.4870   12.5163   24.1384 N   0  0  0  0  0  0  0  0  0  0  0  0
  -60.1057   12.9043   24.6106 FE   0  0  2  0  0  0  0  0  0  0  0  0
  -57.3027   10.2898   24.6937 H   0  0  0  0  0  0  0  0  0  0  0  0
  -58.1125   15.5946   26.3102 H   0  0  0  0  0  0  0  0  0  0  0  0
  -61.8536   14.8908   21.8802 H   0  0  0  0  0  0  0  0  0  0  0  0
  -59.0252    8.3688   27.3448 H   0  0  0  0  0  0  0  0  0  0  0  0
  -57.5399    9.2897   27.0946 H   0  0  0  0  0  0  0  0  0  0  0  0
  -58.2636    8.4913   25.6758 H   0  0  0  0  0  0  0  0  0  0  0  0
  -62.4292    8.9272   25.9035 H   0  0  0  0  0  0  0  0  0  0  0  0
  -61.4927    8.3733   27.3291 H   0  0  0  0  0  0  0  0  0  0  0  0
  -59.8448    7.1854   25.6900 H   0  0  0  0  0  0  0  0  0  0  0  0
  -60.7735    7.8011   24.3098 H   0  0  0  0  0  0  0  0  0  0  0  0
  -55.9122   11.1901   25.9320 H   0  0  0  0  0  0  0  0  0  0  0  0
  -55.3842   12.6596   26.1578 H   0  0  0  0  0  0  0  0  0  0  0  0
  -54.6327   11.7607   24.8020 H   0  0  0  0  0  0  0  0  0  0  0  0
  -56.1705   15.9423   25.4004 H   0  0  0  0  0  0  0  0  0  0  0  0
  -53.9192   15.6506   25.8016 H   0  0  0  0  0  0  0  0  0  0  0  0
  -53.8837   13.9142   25.2785 H   0  0  0  0  0  0  0  0  0  0  0  0
  -58.5124   17.5445   25.5320 H   0  0  0  0  0  0  0  0  0  0  0  0
  -59.9207   18.2661   24.7848 H   0  0  0  0  0  0  0  0  0  0  0  0
  -58.9269   17.1163   23.9029 H   0  0  0  0  0  0  0  0  0  0  0  0
  -62.9132   16.7285   22.9443 H   0  0  0  0  0  0  0  0  0  0  0  0
  -62.2229   18.7373   22.1129 H   0  0  0  0  0  0  0  0  0  0  0  0
  -60.5597   18.6827   22.8409 H   0  0  0  0  0  0  0  0  0  0  0  0
  -64.9722   12.8140   22.1666 H   0  0  0  0  0  0  0  0  0  0  0  0
  -63.9914   14.1119   21.5033 H   0  0  0  0  0  0  0  0  0  0  0  0
  -64.2164   13.9323   23.2410 H   0  0  0  0  0  0  0  0  0  0  0  0
  -65.2001   11.4778   23.7954 H   0  0  0  0  0  0  0  0  0  0  0  0
  -64.3505   10.1167   24.4914 H   0  0  0  0  0  0  0  0  0  0  0  0
  -63.9644    9.0375   22.3489 H   0  0  0  0  0  0  0  0  0  0  0  0
  -64.8323   10.3554   21.4730 H   0  0  0  0  0  0  0  0  0  0  0  0
  -63.1959   11.0828   25.9819 H   0  0  0  0  0  0  0  0  0  0  0  0
  1  5  1  0  0  0  0
  1 32  2  0  0  0  0
  1 73  1  0  0  0  0
  2  8  1  0  0  0  0
  2 15  2  0  0  0  0
  2 44  1  0  0  0  0
  3 18  1  0  0  0  0
  3 22  2  0  0  0  0
  3 45  1  0  0  0  0
  4 25  2  0  0  0  0
  4 29  1  0  0  0  0
  4 46  1  0  0  0  0
  5  6  2  0  0  0  0
  5 39  1  0  0  0  0
  6  7  1  0  0  0  0
  6 10  1  0  0  0  0
  7  8  2  0  0  0  0
  7  9  1  0  0  0  0
  8 39  1  0  0  0  0
  9 47  1  0  0  0  0
  9 48  1  0  0  0  0
  9 49  1  0  0  0  0
 10 11  1  0  0  0  0
 10 50  1  0  0  0  0
 10 51  1  0  0  0  0
 11 12  1  0  0  0  0
 11 52  1  0  0  0  0
 11 53  1  0  0  0  0
 12 13  2  0  0  0  0
 12 14  1  0  0  0  0
 15 16  1  0  0  0  0
 15 40  1  0  0  0  0
 16 17  2  0  0  0  0
 16 19  1  0  0  0  0
 17 18  1  0  0  0  0
 17 20  1  0  0  0  0
 18 40  2  0  0  0  0
 19 54  1  0  0  0  0
 19 55  1  0  0  0  0
 19 56  1  0  0  0  0
 20 21  2  0  0  0  0
 20 57  1  0  0  0  0
 21 58  1  0  0  0  0
 21 59  1  0  0  0  0
 22 23  1  0  0  0  0
 22 41  1  0  0  0  0
 23 24  2  0  0  0  0
 23 26  1  0  0  0  0
 24 25  1  0  0  0  0
 24 27  1  0  0  0  0
 25 41  1  0  0  0  0
 26 60  1  0  0  0  0
 26 61  1  0  0  0  0
 26 62  1  0  0  0  0
 27 28  2  0  0  0  0
 27 63  1  0  0  0  0
 28 64  1  0  0  0  0
 28 65  1  0  0  0  0
 29 30  1  0  0  0  0
 29 42  2  0  0  0  0
 30 31  2  0  0  0  0
 30 33  1  0  0  0  0
 31 32  1  0  0  0  0
 31 34  1  0  0  0  0
 32 42  1  0  0  0  0
 33 66  1  0  0  0  0
 33 67  1  0  0  0  0
 33 68  1  0  0  0  0
 34 35  1  0  0  0  0
 34 69  1  0  0  0  0
 34 70  1  0  0  0  0
 35 36  1  0  0  0  0
 35 71  1  0  0  0  0
 35 72  1  0  0  0  0
 36 37  2  0  0  0  0
 36 38  1  0  0  0  0
 40 43  1  0  0  0  0
 41 43  1  0  0  0  0
 42 43  1  0  0  0  0
 43 39  1  1  0  0  0
M  END
>  <model_server_result.job_id>
MgMlsX9H2VWBVvU6wtN3jA

>  <model_server_result.datetime_utc>
2022-08-01 16:13:37

>  <model_server_result.server_version>
0.9.9

>  <model_server_result.query_name>
ligand

>  <model_server_result.source_id>
pdb-bcif

>  <model_server_result.entry_id>
6vby

>  <model_server_params.name>
atom_site

>  <model_server_params.value>
{"label_asym_id":"C","auth_seq_id":602}

>  <model_server_stats.io_time_ms>
17

>  <model_server_stats.parse_time_ms>
85

>  <model_server_stats.create_model_time_ms>
20

>  <model_server_stats.query_time_ms>
227

>  <model_server_stats.encode_time_ms>
1

>  <model_server_stats.element_count>
73

$$$$
