REMARK  Name = nadph_minimized.pdb
REMARK  20 active torsions:
REMARK  status: ('A' for Active; 'I' for Inactive)
REMARK    1  A    between atoms: P_1  and  O_6
REMARK    2  A    between atoms: P_1  and  O_13
REMARK    3  A    between atoms: P_1  and  O_14
REMARK    4  A    between atoms: P_2  and  O_10
REMARK    5  A    between atoms: P_2  and  O_12
REMARK    6  A    between atoms: P_2  and  O_16
REMARK    7  A    between atoms: P_3  and  O_11
REMARK    8  A    between atoms: P_3  and  O_12
REMARK    9  A    between atoms: P_3  and  O_17
REMARK   10  A    between atoms: O_6  and  C_28
REMARK   11  A    between atoms: O_7  and  C_29
REMARK   12  A    between atoms: O_8  and  C_32
REMARK   13  A    between atoms: O_9  and  C_33
REMARK   14  A    between atoms: O_10  and  C_36
REMARK   15  A    between atoms: O_11  and  C_37
REMARK   16  A    between atoms: N_21  and  C_30
REMARK   17  A    between atoms: N_22  and  C_35
REMARK   18  A    between atoms: C_31  and  C_36
REMARK   19  A    between atoms: C_34  and  C_37
REMARK   20  A    between atoms: C_43  and  C_48
REMARK                            x       y       z     vdW  Elec       q    Type
REMARK                         _______ _______ _______ _____ _____    ______ ____
ROOT
ATOM      1  P   UNL     1      -0.849   0.109   1.852  0.00  0.00    +0.000 P 
ATOM      2  O   UNL     1      -1.603  -0.708   2.842  0.00  0.00    +0.000 OA
ENDROOT
BRANCH   1   3
ATOM      3  O   UNL     1      -1.307   1.647   1.929  0.00  0.00    +0.000 OA
ATOM      4  H   UNL     1      -1.558   1.871   2.850  0.00  0.00    +0.000 HD
ENDBRANCH   1   3
BRANCH   1   5
ATOM      5  O   UNL     1       0.724   0.214   2.040  0.00  0.00    +0.000 OA
BRANCH   5   6
ATOM      6  P   UNL     1       1.667  -1.033   1.776  0.00  0.00    +0.000 P 
ATOM      7  O   UNL     1       1.032  -2.359   1.533  0.00  0.00    +0.000 OA
BRANCH   6   8
ATOM      8  O   UNL     1       2.706  -0.983   2.992  0.00  0.00    +0.000 OA
ATOM      9  H   UNL     1       3.368  -0.277   2.876  0.00  0.00    +0.000 HD
ENDBRANCH   6   8
BRANCH   6  10
ATOM     10  O   UNL     1       2.636  -0.562   0.583  0.00  0.00    +0.000 OA
BRANCH  10  11
ATOM     11  C   UNL     1       2.121  -0.585  -0.740  0.00  0.00    +0.000 C 
BRANCH  11  15
ATOM     12  O   UNL     1       4.300  -0.356  -1.803  0.00  0.00    +0.000 OA
ATOM     13  C   UNL     1       3.626  -2.583  -1.317  0.00  0.00    +0.000 C 
ATOM     14  C   UNL     1       4.875  -2.298  -0.499  0.00  0.00    +0.000 C 
ATOM     15  C   UNL     1       3.130  -1.198  -1.716  0.00  0.00    +0.000 C 
ATOM     16  C   UNL     1       5.422  -1.035  -1.187  0.00  0.00    +0.000 C 
BRANCH  16  17
ATOM     17  N   UNL     1       6.163  -0.165  -0.247  0.00  0.00    +0.000 N 
ATOM     18  C   UNL     1       7.456  -0.531   0.151  0.00  0.00    +0.000 C 
ATOM     19  C   UNL     1       5.639   1.019   0.264  0.00  0.00    +0.000 C 
ATOM     20  C   UNL     1       8.225   0.191   0.989  0.00  0.00    +0.000 C 
ATOM     21  C   UNL     1       7.707   1.481   1.566  0.00  0.00    +0.000 C 
ATOM     22  C   UNL     1       6.308   1.824   1.107  0.00  0.00    +0.000 C 
BRANCH  20  25
ATOM     23  O   UNL     1      10.083  -1.287   0.738  0.00  0.00    +0.000 OA
ATOM     24  N   UNL     1      10.293   0.362   2.239  0.00  0.00    +0.000 N 
ATOM     25  C   UNL     1       9.586  -0.315   1.295  0.00  0.00    +0.000 C 
ATOM     26  H   UNL     1      11.215   0.005   2.461  0.00  0.00    +0.000 HD
ATOM     27  H   UNL     1       9.947   1.139   2.778  0.00  0.00    +0.000 HD
ENDBRANCH  20  25
ENDBRANCH  16  17
BRANCH  14  28
ATOM     28  O   UNL     1       5.780  -3.408  -0.532  0.00  0.00    +0.000 OA
ATOM     29  H   UNL     1       5.442  -4.017  -1.220  0.00  0.00    +0.000 HD
ENDBRANCH  14  28
BRANCH  13  30
ATOM     30  O   UNL     1       4.005  -3.349  -2.478  0.00  0.00    +0.000 OA
ATOM     31  H   UNL     1       4.330  -2.738  -3.168  0.00  0.00    +0.000 HD
ENDBRANCH  13  30
ENDBRANCH  11  15
ENDBRANCH  10  11
ENDBRANCH   6  10
ENDBRANCH   5   6
ENDBRANCH   1   5
BRANCH   1  32
ATOM     32  O   UNL     1      -1.078  -0.210   0.296  0.00  0.00    +0.000 OA
BRANCH  32  33
ATOM     33  C   UNL     1      -2.376  -0.635  -0.088  0.00  0.00    +0.000 C 
BRANCH  33  38
ATOM     34  O   UNL     1      -4.111  -0.452  -1.768  0.00  0.00    +0.000 OA
ATOM     35  C   UNL     1      -4.354   1.755  -0.833  0.00  0.00    +0.000 C 
ATOM     36  C   UNL     1      -2.921   1.552  -1.301  0.00  0.00    +0.000 C 
ATOM     37  C   UNL     1      -5.068   0.614  -1.579  0.00  0.00    +0.000 C 
ATOM     38  C   UNL     1      -2.802   0.034  -1.397  0.00  0.00    +0.000 C 
BRANCH  37  39
ATOM     39  N   UNL     1      -6.229   0.040  -0.927  0.00  0.00    +0.000 N 
ATOM     40  N   UNL     1      -8.274  -0.842  -0.749  0.00  0.00    +0.000 NA
ATOM     41  N   UNL     1      -5.462  -0.238   1.374  0.00  0.00    +0.000 NA
ATOM     42  N   UNL     1      -7.152  -1.309   2.749  0.00  0.00    +0.000 NA
ATOM     43  N   UNL     1      -9.268  -1.962   1.958  0.00  0.00    +0.000 N 
ATOM     44  C   UNL     1      -6.358  -0.349   0.379  0.00  0.00    +0.000 A 
ATOM     45  C   UNL     1      -7.404  -0.283  -1.565  0.00  0.00    +0.000 A 
ATOM     46  C   UNL     1      -7.630  -0.892   0.467  0.00  0.00    +0.000 A 
ATOM     47  C   UNL     1      -8.025  -1.384   1.723  0.00  0.00    +0.000 A 
ATOM     48  C   UNL     1      -5.941  -0.757   2.523  0.00  0.00    +0.000 A 
ATOM     49  H   UNL     1      -9.249  -2.589   2.753  0.00  0.00    +0.000 HD
ATOM     50  H   UNL     1      -9.711  -2.295   1.105  0.00  0.00    +0.000 HD
ENDBRANCH  37  39
BRANCH  36  51
ATOM     51  O   UNL     1      -2.761   2.118  -2.612  0.00  0.00    +0.000 OA
ATOM     52  H   UNL     1      -3.075   3.041  -2.553  0.00  0.00    +0.000 HD
ENDBRANCH  36  51
BRANCH  35  53
ATOM     53  O   UNL     1      -4.762   3.085  -1.159  0.00  0.00    +0.000 OA
BRANCH  53  54
ATOM     54  P   UNL     1      -6.306   3.472  -0.991  0.00  0.00    +0.000 P 
ATOM     55  O   UNL     1      -7.228   2.855  -1.983  0.00  0.00    +0.000 OA
BRANCH  54  56
ATOM     56  O   UNL     1      -6.665   3.086   0.513  0.00  0.00    +0.000 OA
ATOM     57  H   UNL     1      -7.615   2.866   0.594  0.00  0.00    +0.000 HD
ENDBRANCH  54  56
BRANCH  54  58
ATOM     58  O   UNL     1      -6.316   5.056  -0.914  0.00  0.00    +0.000 OA
ATOM     59  H   UNL     1      -5.744   5.391  -0.200  0.00  0.00    +0.000 HD
ENDBRANCH  54  58
ENDBRANCH  53  54
ENDBRANCH  35  53
ENDBRANCH  33  38
ENDBRANCH  32  33
ENDBRANCH   1  32
TORSDOF 20
