MODEL 1
REMARK VINA RESULT:   -11.485      0.000      0.000
REMARK INTER + INTRA:         -16.867
REMARK INTER:                 -15.890
REMARK INTRA:                  -0.977
REMARK UNBOUND:                -0.011
REMARK  Name = porphyrin.pdb
REMARK  12 active torsions:
REMARK  status: ('A' for Active; 'I' for Inactive)
REMARK    1  A    between atoms: C_6  and  C_10
REMARK    2  A    between atoms: C_7  and  C_9
REMARK    3  A    between atoms: C_10  and  C_11
REMARK    4  A    between atoms: C_11  and  C_12
REMARK    5  A    between atoms: C_16  and  C_19
REMARK    6  A    between atoms: C_17  and  C_20
REMARK    7  A    between atoms: C_23  and  C_26
REMARK    8  A    between atoms: C_24  and  C_27
REMARK    9  A    between atoms: C_30  and  C_33
REMARK   10  A    between atoms: C_31  and  C_34
REMARK   11  A    between atoms: C_34  and  C_35
REMARK   12  A    between atoms: C_35  and  C_36
REMARK                            x       y       z     vdW  Elec       q    Type
REMARK                         _______ _______ _______ _____ _____    ______ ____
ROOT
ATOM      1  C   UNK     0       5.095  -4.325  -1.222  0.00  0.00    +0.000 C 
ATOM      2  C   UNK     0       6.832  -2.136   2.737  0.00  0.00    +0.000 C 
ATOM      3  C   UNK     0       2.337  -0.764   3.907  0.00  0.00    +0.000 C 
ATOM      4  C   UNK     0       0.676  -2.654  -0.227  0.00  0.00    +0.000 C 
ATOM      5  C   UNK     0       5.942  -3.879  -0.234  0.00  0.00    +0.000 A 
ATOM      6  C   UNK     0       7.358  -4.143  -0.167  0.00  0.00    +0.000 A 
ATOM      7  C   UNK     0       7.845  -3.549   0.924  0.00  0.00    +0.000 A 
ATOM      8  C   UNK     0       6.752  -2.875   1.583  0.00  0.00    +0.000 A 
ATOM      9  C   UNK     0       9.307  -3.565   1.413  0.00  0.00    +0.000 C 
ATOM     10  C   UNK     0       5.762  -1.601   3.416  0.00  0.00    +0.000 C 
ATOM     11  C   UNK     0       5.826  -0.948   4.704  0.00  0.00    +0.000 C 
ATOM     12  C   UNK     0       4.579  -0.577   5.036  0.00  0.00    +0.000 C 
ATOM     13  C   UNK     0       3.695  -0.975   3.959  0.00  0.00    +0.000 C 
ATOM     14  C   UNK     0       7.131  -0.755   5.509  0.00  0.00    +0.000 C 
ATOM     15  C   UNK     0       1.503  -1.100   2.861  0.00  0.00    +0.000 A 
ATOM     16  C   UNK     0       0.111  -0.720   2.719  0.00  0.00    +0.000 A 
ATOM     17  C   UNK     0      -0.345  -1.250   1.568  0.00  0.00    +0.000 A 
ATOM     18  C   UNK     0       0.745  -1.974   0.966  0.00  0.00    +0.000 A 
ATOM     19  C   UNK     0      -0.642   0.150   3.749  0.00  0.00    +0.000 C 
ATOM     20  C   UNK     0       1.716  -3.301  -0.841  0.00  0.00    +0.000 C 
ATOM     21  C   UNK     0       1.632  -4.089  -2.050  0.00  0.00    +0.000 C 
ATOM     22  C   UNK     0       2.855  -4.551  -2.330  0.00  0.00    +0.000 C 
ATOM     23  C   UNK     0       3.752  -4.070  -1.299  0.00  0.00    +0.000 C 
ATOM     24  C   UNK     0       0.347  -4.339  -2.868  0.00  0.00    +0.000 C 
ATOM     25  N   UNK     0       5.601  -3.101   0.850  0.00  0.00    +0.000 N 
ATOM     26  N   UNK     0       4.449  -1.600   2.985  0.00  0.00    +0.000 N 
ATOM     27  N   UNK     0       1.850  -1.859   1.770  0.00  0.00    +0.000 N 
ATOM     28  N   UNK     0       3.027  -3.307  -0.403  0.00  0.00    +0.000 N 
ATOM     29 FE   UNK     0       3.722  -2.422   1.274  0.00  0.00    +0.000 Fe
ENDROOT
BRANCH  12  30
ATOM     30  C   UNK     0       4.100   0.169   6.301  0.00  0.00    +0.000 C 
ATOM     31  C   UNK     0       3.494   1.358   6.226  0.00  0.00    +0.000 C 
ENDBRANCH  12  30
BRANCH  17  32
ATOM     32  C   UNK     0      -1.735  -1.183   0.893  0.00  0.00    +0.000 C 
ATOM     33  C   UNK     0      -2.822  -1.723   1.445  0.00  0.00    +0.000 C 
ENDBRANCH  17  32
BRANCH   6  34
ATOM     34  C   UNK     0       8.126  -5.001  -1.191  0.00  0.00    +0.000 C 
BRANCH  34  35
ATOM     35  C   UNK     0       8.244  -6.447  -0.730  0.00  0.00    +0.000 C 
BRANCH  35  36
ATOM     36  C   UNK     0       8.639  -7.275  -1.924  0.00  0.00    +0.000 C 
ATOM     37  O   UNK     0       8.405  -8.513  -1.910  0.00  0.00    +0.000 OA
ATOM     38  O   UNK     0       9.179  -6.700  -2.905  0.00  0.00    +0.000 OA
ENDBRANCH  35  36
ENDBRANCH  34  35
ENDBRANCH   6  34
BRANCH  22  39
ATOM     39  C   UNK     0       3.259  -5.443  -3.527  0.00  0.00    +0.000 C 
BRANCH  39  40
ATOM     40  C   UNK     0       3.042  -6.920  -3.197  0.00  0.00    +0.000 C 
BRANCH  40  41
ATOM     41  C   UNK     0       2.474  -7.636  -4.395  0.00  0.00    +0.000 C 
ATOM     42  O   UNK     0       3.261  -8.098  -5.264  0.00  0.00    +0.000 OA
ATOM     43  O   UNK     0       1.224  -7.736  -4.492  0.00  0.00    +0.000 OA
ENDBRANCH  40  41
ENDBRANCH  39  40
ENDBRANCH  22  39
TORSDOF 8
ENDMDL
MODEL 2
REMARK VINA RESULT:   -11.043      2.227      6.083
REMARK INTER + INTRA:         -16.218
REMARK INTER:                 -15.501
REMARK INTRA:                  -0.717
REMARK UNBOUND:                -0.011
REMARK  Name = porphyrin.pdb
REMARK  12 active torsions:
REMARK  status: ('A' for Active; 'I' for Inactive)
REMARK    1  A    between atoms: C_6  and  C_10
REMARK    2  A    between atoms: C_7  and  C_9
REMARK    3  A    between atoms: C_10  and  C_11
REMARK    4  A    between atoms: C_11  and  C_12
REMARK    5  A    between atoms: C_16  and  C_19
REMARK    6  A    between atoms: C_17  and  C_20
REMARK    7  A    between atoms: C_23  and  C_26
REMARK    8  A    between atoms: C_24  and  C_27
REMARK    9  A    between atoms: C_30  and  C_33
REMARK   10  A    between atoms: C_31  and  C_34
REMARK   11  A    between atoms: C_34  and  C_35
REMARK   12  A    between atoms: C_35  and  C_36
REMARK                            x       y       z     vdW  Elec       q    Type
REMARK                         _______ _______ _______ _____ _____    ______ ____
ROOT
ATOM      1  C   UNK     0       1.214  -2.401  -0.218  0.00  0.00    +0.000 C 
ATOM      2  C   UNK     0       5.943  -3.456  -0.314  0.00  0.00    +0.000 C 
ATOM      3  C   UNK     0       6.406  -1.621   4.144  0.00  0.00    +0.000 C 
ATOM      4  C   UNK     0       1.761  -0.263   4.076  0.00  0.00    +0.000 C 
ATOM      5  C   UNK     0       2.445  -2.872  -0.610  0.00  0.00    +0.000 A 
ATOM      6  C   UNK     0       2.720  -3.562  -1.846  0.00  0.00    +0.000 A 
ATOM      7  C   UNK     0       4.020  -3.863  -1.879  0.00  0.00    +0.000 A 
ATOM      8  C   UNK     0       4.619  -3.362  -0.665  0.00  0.00    +0.000 A 
ATOM      9  C   UNK     0       4.770  -4.609  -3.000  0.00  0.00    +0.000 C 
ATOM     10  C   UNK     0       6.473  -3.081   0.898  0.00  0.00    +0.000 C 
ATOM     11  C   UNK     0       7.835  -3.310   1.326  0.00  0.00    +0.000 C 
ATOM     12  C   UNK     0       7.963  -2.813   2.566  0.00  0.00    +0.000 C 
ATOM     13  C   UNK     0       6.687  -2.244   2.950  0.00  0.00    +0.000 C 
ATOM     14  C   UNK     0       8.902  -4.022   0.462  0.00  0.00    +0.000 C 
ATOM     15  C   UNK     0       5.206  -1.037   4.491  0.00  0.00    +0.000 A 
ATOM     16  C   UNK     0       4.956  -0.225   5.666  0.00  0.00    +0.000 A 
ATOM     17  C   UNK     0       3.663   0.148   5.642  0.00  0.00    +0.000 A 
ATOM     18  C   UNK     0       3.073  -0.422   4.458  0.00  0.00    +0.000 A 
ATOM     19  C   UNK     0       6.042   0.114   6.712  0.00  0.00    +0.000 C 
ATOM     20  C   UNK     0       1.197  -0.752   2.927  0.00  0.00    +0.000 C 
ATOM     21  C   UNK     0      -0.198  -0.663   2.560  0.00  0.00    +0.000 C 
ATOM     22  C   UNK     0      -0.352  -1.252   1.370  0.00  0.00    +0.000 C 
ATOM     23  C   UNK     0       0.946  -1.736   0.949  0.00  0.00    +0.000 C 
ATOM     24  C   UNK     0      -1.305   0.004   3.405  0.00  0.00    +0.000 C 
ATOM     25  N   UNK     0       3.626  -2.765   0.091  0.00  0.00    +0.000 N 
ATOM     26  N   UNK     0       5.798  -2.425   1.909  0.00  0.00    +0.000 N 
ATOM     27  N   UNK     0       4.033  -1.129   3.781  0.00  0.00    +0.000 N 
ATOM     28  N   UNK     0       1.875  -1.414   1.920  0.00  0.00    +0.000 N 
ATOM     29 FE   UNK     0       3.839  -1.881   1.920  0.00  0.00    +0.000 Fe
ENDROOT
BRANCH  12  30
ATOM     30  C   UNK     0       9.216  -2.787   3.469  0.00  0.00    +0.000 C 
ATOM     31  C   UNK     0      10.016  -1.717   3.527  0.00  0.00    +0.000 C 
ENDBRANCH  12  30
BRANCH  17  32
ATOM     32  C   UNK     0       2.831   1.015   6.616  0.00  0.00    +0.000 C 
ATOM     33  C   UNK     0       2.652   2.323   6.430  0.00  0.00    +0.000 C 
ENDBRANCH  17  32
BRANCH   6  34
ATOM     34  C   UNK     0       1.651  -3.900  -2.903  0.00  0.00    +0.000 C 
BRANCH  34  35
ATOM     35  C   UNK     0       0.932  -5.201  -2.573  0.00  0.00    +0.000 C 
BRANCH  35  36
ATOM     36  C   UNK     0       1.158  -6.150  -3.720  0.00  0.00    +0.000 C 
ATOM     37  O   UNK     0       0.284  -7.022  -3.968  0.00  0.00    +0.000 OA
ATOM     38  O   UNK     0       2.208  -6.031  -4.404  0.00  0.00    +0.000 OA
ENDBRANCH  35  36
ENDBRANCH  34  35
ENDBRANCH   6  34
BRANCH  22  39
ATOM     39  C   UNK     0      -1.670  -1.405   0.573  0.00  0.00    +0.000 C 
BRANCH  39  40
ATOM     40  C   UNK     0      -2.743  -2.079   1.429  0.00  0.00    +0.000 C 
BRANCH  40  41
ATOM     41  C   UNK     0      -3.873  -2.556   0.555  0.00  0.00    +0.000 C 
ATOM     42  O   UNK     0      -4.598  -1.707  -0.030  0.00  0.00    +0.000 OA
ATOM     43  O   UNK     0      -4.062  -3.795   0.450  0.00  0.00    +0.000 OA
ENDBRANCH  40  41
ENDBRANCH  39  40
ENDBRANCH  22  39
TORSDOF 8
ENDMDL
MODEL 3
REMARK VINA RESULT:   -11.028      0.398      6.099
REMARK INTER + INTRA:         -16.197
REMARK INTER:                 -15.612
REMARK INTRA:                  -0.585
REMARK UNBOUND:                -0.011
REMARK  Name = porphyrin.pdb
REMARK  12 active torsions:
REMARK  status: ('A' for Active; 'I' for Inactive)
REMARK    1  A    between atoms: C_6  and  C_10
REMARK    2  A    between atoms: C_7  and  C_9
REMARK    3  A    between atoms: C_10  and  C_11
REMARK    4  A    between atoms: C_11  and  C_12
REMARK    5  A    between atoms: C_16  and  C_19
REMARK    6  A    between atoms: C_17  and  C_20
REMARK    7  A    between atoms: C_23  and  C_26
REMARK    8  A    between atoms: C_24  and  C_27
REMARK    9  A    between atoms: C_30  and  C_33
REMARK   10  A    between atoms: C_31  and  C_34
REMARK   11  A    between atoms: C_34  and  C_35
REMARK   12  A    between atoms: C_35  and  C_36
REMARK                            x       y       z     vdW  Elec       q    Type
REMARK                         _______ _______ _______ _____ _____    ______ ____
ROOT
ATOM      1  C   UNK     0       5.134  -4.406  -1.206  0.00  0.00    +0.000 C 
ATOM      2  C   UNK     0       0.587  -3.028  -0.252  0.00  0.00    +0.000 C 
ATOM      3  C   UNK     0       2.188  -0.509   3.561  0.00  0.00    +0.000 C 
ATOM      4  C   UNK     0       6.666  -2.179   2.794  0.00  0.00    +0.000 C 
ATOM      5  C   UNK     0       3.774  -4.221  -1.293  0.00  0.00    +0.000 A 
ATOM      6  C   UNK     0       2.925  -4.742  -2.336  0.00  0.00    +0.000 A 
ATOM      7  C   UNK     0       1.670  -4.362  -2.085  0.00  0.00    +0.000 A 
ATOM      8  C   UNK     0       1.679  -3.594  -0.863  0.00  0.00    +0.000 A 
ATOM      9  C   UNK     0       0.421  -4.676  -2.932  0.00  0.00    +0.000 C 
ATOM     10  C   UNK     0       0.629  -2.200   0.844  0.00  0.00    +0.000 C 
ATOM     11  C   UNK     0      -0.499  -1.488   1.402  0.00  0.00    +0.000 C 
ATOM     12  C   UNK     0      -0.055  -0.778   2.452  0.00  0.00    +0.000 C 
ATOM     13  C   UNK     0       1.364  -1.035   2.594  0.00  0.00    +0.000 C 
ATOM     14  C   UNK     0      -1.934  -1.562   0.832  0.00  0.00    +0.000 C 
ATOM     15  C   UNK     0       3.529  -0.790   3.725  0.00  0.00    +0.000 A 
ATOM     16  C   UNK     0       4.358  -0.384   4.843  0.00  0.00    +0.000 A 
ATOM     17  C   UNK     0       5.602  -0.851   4.623  0.00  0.00    +0.000 A 
ATOM     18  C   UNK     0       5.582  -1.554   3.365  0.00  0.00    +0.000 A 
ATOM     19  C   UNK     0       3.829   0.432   6.042  0.00  0.00    +0.000 C 
ATOM     20  C   UNK     0       6.652  -2.898   1.628  0.00  0.00    +0.000 C 
ATOM     21  C   UNK     0       7.802  -3.485   0.977  0.00  0.00    +0.000 C 
ATOM     22  C   UNK     0       7.380  -4.105  -0.129  0.00  0.00    +0.000 C 
ATOM     23  C   UNK     0       5.946  -3.924  -0.214  0.00  0.00    +0.000 C 
ATOM     24  C   UNK     0       9.257  -3.406   1.489  0.00  0.00    +0.000 C 
ATOM     25  N   UNK     0       2.983  -3.523  -0.407  0.00  0.00    +0.000 N 
ATOM     26  N   UNK     0       1.751  -1.906   1.594  0.00  0.00    +0.000 N 
ATOM     27  N   UNK     0       4.312  -1.503   2.850  0.00  0.00    +0.000 N 
ATOM     28  N   UNK     0       5.528  -3.183   0.875  0.00  0.00    +0.000 N 
ATOM     29 FE   UNK     0       3.647  -2.562   1.268  0.00  0.00    +0.000 Fe
ENDROOT
BRANCH  12  30
ATOM     30  C   UNK     0      -0.856   0.139   3.403  0.00  0.00    +0.000 C 
ATOM     31  C   UNK     0      -2.138  -0.104   3.695  0.00  0.00    +0.000 C 
ENDBRANCH  12  30
BRANCH  17  32
ATOM     32  C   UNK     0       6.898  -0.738   5.459  0.00  0.00    +0.000 C 
ATOM     33  C   UNK     0       6.892  -0.333   6.730  0.00  0.00    +0.000 C 
ENDBRANCH  17  32
BRANCH   6  34
ATOM     34  C   UNK     0       3.436  -5.566  -3.534  0.00  0.00    +0.000 C 
BRANCH  34  35
ATOM     35  C   UNK     0       3.375  -7.060  -3.250  0.00  0.00    +0.000 C 
BRANCH  35  36
ATOM     36  C   UNK     0       2.709  -7.721  -4.426  0.00  0.00    +0.000 C 
ATOM     37  O   UNK     0       1.452  -7.809  -4.444  0.00  0.00    +0.000 OA
ATOM     38  O   UNK     0       3.429  -8.153  -5.364  0.00  0.00    +0.000 OA
ENDBRANCH  35  36
ENDBRANCH  34  35
ENDBRANCH   6  34
BRANCH  22  39
ATOM     39  C   UNK     0       8.250  -4.876  -1.150  0.00  0.00    +0.000 C 
BRANCH  39  40
ATOM     40  C   UNK     0       8.434  -6.330  -0.714  0.00  0.00    +0.000 C 
BRANCH  40  41
ATOM     41  C   UNK     0       8.686  -7.199  -1.918  0.00  0.00    +0.000 C 
ATOM     42  O   UNK     0       9.197  -6.687  -2.950  0.00  0.00    +0.000 OA
ATOM     43  O   UNK     0       8.360  -8.413  -1.856  0.00  0.00    +0.000 OA
ENDBRANCH  40  41
ENDBRANCH  39  40
ENDBRANCH  22  39
TORSDOF 8
ENDMDL
MODEL 4
REMARK VINA RESULT:   -10.481      2.164      6.827
REMARK INTER + INTRA:         -15.394
REMARK INTER:                 -15.001
REMARK INTRA:                  -0.392
REMARK UNBOUND:                -0.011
REMARK  Name = porphyrin.pdb
REMARK  12 active torsions:
REMARK  status: ('A' for Active; 'I' for Inactive)
REMARK    1  A    between atoms: C_6  and  C_10
REMARK    2  A    between atoms: C_7  and  C_9
REMARK    3  A    between atoms: C_10  and  C_11
REMARK    4  A    between atoms: C_11  and  C_12
REMARK    5  A    between atoms: C_16  and  C_19
REMARK    6  A    between atoms: C_17  and  C_20
REMARK    7  A    between atoms: C_23  and  C_26
REMARK    8  A    between atoms: C_24  and  C_27
REMARK    9  A    between atoms: C_30  and  C_33
REMARK   10  A    between atoms: C_31  and  C_34
REMARK   11  A    between atoms: C_34  and  C_35
REMARK   12  A    between atoms: C_35  and  C_36
REMARK                            x       y       z     vdW  Elec       q    Type
REMARK                         _______ _______ _______ _____ _____    ______ ____
ROOT
ATOM      1  C   UNK     0       1.214  -2.632  -0.329  0.00  0.00    +0.000 C 
ATOM      2  C   UNK     0       1.827  -0.513   3.986  0.00  0.00    +0.000 C 
ATOM      3  C   UNK     0       6.572  -1.450   3.733  0.00  0.00    +0.000 C 
ATOM      4  C   UNK     0       5.881  -3.867  -0.404  0.00  0.00    +0.000 C 
ATOM      5  C   UNK     0       0.981  -1.950   0.843  0.00  0.00    +0.000 A 
ATOM      6  C   UNK     0      -0.293  -1.421   1.261  0.00  0.00    +0.000 A 
ATOM      7  C   UNK     0      -0.133  -0.829   2.447  0.00  0.00    +0.000 A 
ATOM      8  C   UNK     0       1.252  -0.973   2.828  0.00  0.00    +0.000 A 
ATOM      9  C   UNK     0      -1.216  -0.114   3.279  0.00  0.00    +0.000 C 
ATOM     10  C   UNK     0       3.170  -0.553   4.278  0.00  0.00    +0.000 C 
ATOM     11  C   UNK     0       3.798   0.059   5.428  0.00  0.00    +0.000 C 
ATOM     12  C   UNK     0       5.116  -0.190   5.353  0.00  0.00    +0.000 C 
ATOM     13  C   UNK     0       5.353  -0.977   4.161  0.00  0.00    +0.000 C 
ATOM     14  C   UNK     0       3.031   0.857   6.507  0.00  0.00    +0.000 C 
ATOM     15  C   UNK     0       6.791  -2.240   2.624  0.00  0.00    +0.000 A 
ATOM     16  C   UNK     0       8.037  -2.890   2.269  0.00  0.00    +0.000 A 
ATOM     17  C   UNK     0       7.839  -3.560   1.117  0.00  0.00    +0.000 A 
ATOM     18  C   UNK     0       6.470  -3.342   0.723  0.00  0.00    +0.000 A 
ATOM     19  C   UNK     0       9.322  -2.791   3.121  0.00  0.00    +0.000 C 
ATOM     20  C   UNK     0       4.568  -3.716  -0.764  0.00  0.00    +0.000 C 
ATOM     21  C   UNK     0       3.962  -4.191  -1.988  0.00  0.00    +0.000 C 
ATOM     22  C   UNK     0       2.669  -3.853  -1.968  0.00  0.00    +0.000 C 
ATOM     23  C   UNK     0       2.419  -3.148  -0.728  0.00  0.00    +0.000 C 
ATOM     24  C   UNK     0       4.695  -4.959  -3.109  0.00  0.00    +0.000 C 
ATOM     25  N   UNK     0       1.906  -1.661   1.822  0.00  0.00    +0.000 N 
ATOM     26  N   UNK     0       4.144  -1.180   3.525  0.00  0.00    +0.000 N 
ATOM     27  N   UNK     0       5.863  -2.544   1.659  0.00  0.00    +0.000 N 
ATOM     28  N   UNK     0       3.598  -3.080  -0.011  0.00  0.00    +0.000 N 
ATOM     29 FE   UNK     0       3.885  -2.165   1.766  0.00  0.00    +0.000 Fe
ENDROOT
BRANCH  12  30
ATOM     30  C   UNK     0       6.232   0.227   6.338  0.00  0.00    +0.000 C 
ATOM     31  C   UNK     0       6.122   0.011   7.652  0.00  0.00    +0.000 C 
ENDBRANCH  12  30
BRANCH  17  32
ATOM     32  C   UNK     0       8.791  -4.432   0.266  0.00  0.00    +0.000 C 
ATOM     33  C   UNK     0       8.812  -5.762   0.359  0.00  0.00    +0.000 C 
ENDBRANCH  17  32
BRANCH   6  34
ATOM     34  C   UNK     0      -1.585  -1.519   0.428  0.00  0.00    +0.000 C 
BRANCH  34  35
ATOM     35  C   UNK     0      -2.796  -1.800   1.307  0.00  0.00    +0.000 C 
BRANCH  35  36
ATOM     36  C   UNK     0      -3.845  -2.449   0.444  0.00  0.00    +0.000 C 
ATOM     37  O   UNK     0      -3.908  -3.706   0.405  0.00  0.00    +0.000 OA
ATOM     38  O   UNK     0      -4.637  -1.712  -0.200  0.00  0.00    +0.000 OA
ENDBRANCH  35  36
ENDBRANCH  34  35
ENDBRANCH   6  34
BRANCH  22  39
ATOM     39  C   UNK     0       1.617  -4.147  -3.063  0.00  0.00    +0.000 C 
BRANCH  39  40
ATOM     40  C   UNK     0       0.981  -5.520  -2.847  0.00  0.00    +0.000 C 
BRANCH  40  41
ATOM     41  C   UNK     0       1.199  -6.385  -4.060  0.00  0.00    +0.000 C 
ATOM     42  O   UNK     0       2.112  -6.081  -4.875  0.00  0.00    +0.000 OA
ATOM     43  O   UNK     0       0.448  -7.380  -4.227  0.00  0.00    +0.000 OA
ENDBRANCH  40  41
ENDBRANCH  39  40
ENDBRANCH  22  39
TORSDOF 8
ENDMDL
MODEL 5
REMARK VINA RESULT:    -9.850      2.162      6.136
REMARK INTER + INTRA:         -14.467
REMARK INTER:                 -13.933
REMARK INTRA:                  -0.534
REMARK UNBOUND:                -0.011
REMARK  Name = porphyrin.pdb
REMARK  12 active torsions:
REMARK  status: ('A' for Active; 'I' for Inactive)
REMARK    1  A    between atoms: C_6  and  C_10
REMARK    2  A    between atoms: C_7  and  C_9
REMARK    3  A    between atoms: C_10  and  C_11
REMARK    4  A    between atoms: C_11  and  C_12
REMARK    5  A    between atoms: C_16  and  C_19
REMARK    6  A    between atoms: C_17  and  C_20
REMARK    7  A    between atoms: C_23  and  C_26
REMARK    8  A    between atoms: C_24  and  C_27
REMARK    9  A    between atoms: C_30  and  C_33
REMARK   10  A    between atoms: C_31  and  C_34
REMARK   11  A    between atoms: C_34  and  C_35
REMARK   12  A    between atoms: C_35  and  C_36
REMARK                            x       y       z     vdW  Elec       q    Type
REMARK                         _______ _______ _______ _____ _____    ______ ____
ROOT
ATOM      1  C   UNK     0       6.812  -2.794   1.705  0.00  0.00    +0.000 C 
ATOM      2  C   UNK     0       2.719  -0.684   3.213  0.00  0.00    +0.000 C 
ATOM      3  C   UNK     0       0.302  -2.915  -0.341  0.00  0.00    +0.000 C 
ATOM      4  C   UNK     0       4.456  -4.731  -2.037  0.00  0.00    +0.000 C 
ATOM      5  C   UNK     0       5.906  -2.061   2.435  0.00  0.00    +0.000 A 
ATOM      6  C   UNK     0       6.209  -1.307   3.627  0.00  0.00    +0.000 A 
ATOM      7  C   UNK     0       5.086  -0.727   4.054  0.00  0.00    +0.000 A 
ATOM      8  C   UNK     0       4.029  -1.085   3.137  0.00  0.00    +0.000 A 
ATOM      9  C   UNK     0       4.921   0.168   5.297  0.00  0.00    +0.000 C 
ATOM     10  C   UNK     0       1.702  -1.130   2.402  0.00  0.00    +0.000 C 
ATOM     11  C   UNK     0       0.299  -0.824   2.568  0.00  0.00    +0.000 C 
ATOM     12  C   UNK     0      -0.375  -1.451   1.591  0.00  0.00    +0.000 C 
ATOM     13  C   UNK     0       0.588  -2.160   0.772  0.00  0.00    +0.000 C 
ATOM     14  C   UNK     0      -0.261   0.065   3.703  0.00  0.00    +0.000 C 
ATOM     15  C   UNK     0       1.222  -3.551  -1.149  0.00  0.00    +0.000 A 
ATOM     16  C   UNK     0       0.947  -4.193  -2.419  0.00  0.00    +0.000 A 
ATOM     17  C   UNK     0       2.106  -4.697  -2.885  0.00  0.00    +0.000 A 
ATOM     18  C   UNK     0       3.129  -4.386  -1.919  0.00  0.00    +0.000 A 
ATOM     19  C   UNK     0      -0.456  -4.240  -3.063  0.00  0.00    +0.000 C 
ATOM     20  C   UNK     0       5.450  -4.396  -1.157  0.00  0.00    +0.000 C 
ATOM     21  C   UNK     0       6.829  -4.826  -1.228  0.00  0.00    +0.000 C 
ATOM     22  C   UNK     0       7.485  -4.288  -0.195  0.00  0.00    +0.000 C 
ATOM     23  C   UNK     0       6.536  -3.503   0.567  0.00  0.00    +0.000 C 
ATOM     24  C   UNK     0       7.426  -5.741  -2.320  0.00  0.00    +0.000 C 
ATOM     25  N   UNK     0       4.565  -1.905   2.161  0.00  0.00    +0.000 N 
ATOM     26  N   UNK     0       1.848  -1.945   1.295  0.00  0.00    +0.000 N 
ATOM     27  N   UNK     0       2.562  -3.688  -0.883  0.00  0.00    +0.000 N 
ATOM     28  N   UNK     0       5.300  -3.587  -0.046  0.00  0.00    +0.000 N 
ATOM     29 FE   UNK     0       3.574  -2.752   0.589  0.00  0.00    +0.000 Fe
ENDROOT
BRANCH  12  30
ATOM     30  C   UNK     0      -1.894  -1.440   1.307  0.00  0.00    +0.000 C 
ATOM     31  C   UNK     0      -2.778  -1.086   2.245  0.00  0.00    +0.000 C 
ENDBRANCH  12  30
BRANCH  17  32
ATOM     32  C   UNK     0       2.434  -5.476  -4.180  0.00  0.00    +0.000 C 
ATOM     33  C   UNK     0       2.029  -6.731  -4.377  0.00  0.00    +0.000 C 
ENDBRANCH  17  32
BRANCH   6  34
ATOM     34  C   UNK     0       7.605  -1.242   4.276  0.00  0.00    +0.000 C 
BRANCH  34  35
ATOM     35  C   UNK     0       8.654  -0.740   3.294  0.00  0.00    +0.000 C 
BRANCH  35  36
ATOM     36  C   UNK     0       9.910  -1.537   3.521  0.00  0.00    +0.000 C 
ATOM     37  O   UNK     0      10.745  -1.129   4.372  0.00  0.00    +0.000 OA
ATOM     38  O   UNK     0      10.080  -2.597   2.863  0.00  0.00    +0.000 OA
ENDBRANCH  35  36
ENDBRANCH  34  35
ENDBRANCH   6  34
BRANCH  22  39
ATOM     39  C   UNK     0       8.983  -4.465   0.147  0.00  0.00    +0.000 C 
BRANCH  39  40
ATOM     40  C   UNK     0       9.167  -5.520   1.239  0.00  0.00    +0.000 C 
BRANCH  40  41
ATOM     41  C   UNK     0       8.740  -6.871   0.726  0.00  0.00    +0.000 C 
ATOM     42  O   UNK     0       7.689  -7.396   1.179  0.00  0.00    +0.000 OA
ATOM     43  O   UNK     0       9.463  -7.437  -0.135  0.00  0.00    +0.000 OA
ENDBRANCH  40  41
ENDBRANCH  39  40
ENDBRANCH  22  39
TORSDOF 8
ENDMDL
MODEL 6
REMARK VINA RESULT:    -9.165      3.370      7.650
REMARK INTER + INTRA:         -13.462
REMARK INTER:                 -12.454
REMARK INTRA:                  -1.008
REMARK UNBOUND:                -0.011
REMARK  Name = porphyrin.pdb
REMARK  12 active torsions:
REMARK  status: ('A' for Active; 'I' for Inactive)
REMARK    1  A    between atoms: C_6  and  C_10
REMARK    2  A    between atoms: C_7  and  C_9
REMARK    3  A    between atoms: C_10  and  C_11
REMARK    4  A    between atoms: C_11  and  C_12
REMARK    5  A    between atoms: C_16  and  C_19
REMARK    6  A    between atoms: C_17  and  C_20
REMARK    7  A    between atoms: C_23  and  C_26
REMARK    8  A    between atoms: C_24  and  C_27
REMARK    9  A    between atoms: C_30  and  C_33
REMARK   10  A    between atoms: C_31  and  C_34
REMARK   11  A    between atoms: C_34  and  C_35
REMARK   12  A    between atoms: C_35  and  C_36
REMARK                            x       y       z     vdW  Elec       q    Type
REMARK                         _______ _______ _______ _____ _____    ______ ____
ROOT
ATOM      1  C   UNK     0       5.973  -2.392   1.419  0.00  0.00    +0.000 C 
ATOM      2  C   UNK     0       1.317  -1.198   2.030  0.00  0.00    +0.000 C 
ATOM      3  C   UNK     0       0.084  -4.403  -1.385  0.00  0.00    +0.000 C 
ATOM      4  C   UNK     0       4.762  -5.324  -2.221  0.00  0.00    +0.000 C 
ATOM      5  C   UNK     0       4.817  -1.821   1.898  0.00  0.00    +0.000 A 
ATOM      6  C   UNK     0       4.742  -0.868   2.978  0.00  0.00    +0.000 A 
ATOM      7  C   UNK     0       3.462  -0.538   3.158  0.00  0.00    +0.000 A 
ATOM      8  C   UNK     0       2.679  -1.264   2.187  0.00  0.00    +0.000 A 
ATOM      9  C   UNK     0       2.897   0.441   4.207  0.00  0.00    +0.000 C 
ATOM     10  C   UNK     0       0.575  -1.985   1.181  0.00  0.00    +0.000 C 
ATOM     11  C   UNK     0      -0.869  -2.021   1.116  0.00  0.00    +0.000 C 
ATOM     12  C   UNK     0      -1.214  -2.918   0.178  0.00  0.00    +0.000 C 
ATOM     13  C   UNK     0       0.005  -3.462  -0.384  0.00  0.00    +0.000 C 
ATOM     14  C   UNK     0      -1.794  -1.161   2.009  0.00  0.00    +0.000 C 
ATOM     15  C   UNK     0       1.243  -4.887  -1.954  0.00  0.00    +0.000 A 
ATOM     16  C   UNK     0       1.333  -5.736  -3.126  0.00  0.00    +0.000 A 
ATOM     17  C   UNK     0       2.637  -5.989  -3.352  0.00  0.00    +0.000 A 
ATOM     18  C   UNK     0       3.390  -5.310  -2.329  0.00  0.00    +0.000 A 
ATOM     19  C   UNK     0       0.102  -6.215  -3.925  0.00  0.00    +0.000 C 
ATOM     20  C   UNK     0       5.497  -4.640  -1.289  0.00  0.00    +0.000 C 
ATOM     21  C   UNK     0       6.930  -4.716  -1.114  0.00  0.00    +0.000 C 
ATOM     22  C   UNK     0       7.269  -3.903  -0.109  0.00  0.00    +0.000 C 
ATOM     23  C   UNK     0       6.055  -3.289   0.387  0.00  0.00    +0.000 C 
ATOM     24  C   UNK     0       7.889  -5.586  -1.955  0.00  0.00    +0.000 C 
ATOM     25  N   UNK     0       3.539  -2.043   1.435  0.00  0.00    +0.000 N 
ATOM     26  N   UNK     0       1.080  -2.873   0.251  0.00  0.00    +0.000 N 
ATOM     27  N   UNK     0       2.519  -4.648  -1.503  0.00  0.00    +0.000 N 
ATOM     28  N   UNK     0       4.987  -3.758  -0.354  0.00  0.00    +0.000 N 
ATOM     29 FE   UNK     0       3.037  -3.307  -0.089  0.00  0.00    +0.000 Fe
ENDROOT
BRANCH  12  30
ATOM     30  C   UNK     0      -2.628  -3.324  -0.293  0.00  0.00    +0.000 C 
ATOM     31  C   UNK     0      -3.558  -3.749   0.569  0.00  0.00    +0.000 C 
ENDBRANCH  12  30
BRANCH  17  32
ATOM     32  C   UNK     0       3.340  -6.822  -4.449  0.00  0.00    +0.000 C 
ATOM     33  C   UNK     0       3.448  -8.149  -4.376  0.00  0.00    +0.000 C 
ENDBRANCH  17  32
BRANCH   6  34
ATOM     34  C   UNK     0       5.962  -0.373   3.779  0.00  0.00    +0.000 C 
BRANCH  34  35
ATOM     35  C   UNK     0       6.110  -1.128   5.093  0.00  0.00    +0.000 C 
BRANCH  35  36
ATOM     36  C   UNK     0       5.719  -0.190   6.204  0.00  0.00    +0.000 C 
ATOM     37  O   UNK     0       5.824   1.051   6.017  0.00  0.00    +0.000 OA
ATOM     38  O   UNK     0       5.285  -0.678   7.280  0.00  0.00    +0.000 OA
ENDBRANCH  35  36
ENDBRANCH  34  35
ENDBRANCH   6  34
BRANCH  22  39
ATOM     39  C   UNK     0       8.692  -3.654   0.444  0.00  0.00    +0.000 C 
BRANCH  39  40
ATOM     40  C   UNK     0       8.854  -4.291   1.825  0.00  0.00    +0.000 C 
BRANCH  40  41
ATOM     41  C   UNK     0       9.231  -3.239   2.835  0.00  0.00    +0.000 C 
ATOM     42  O   UNK     0      10.346  -2.660   2.732  0.00  0.00    +0.000 OA
ATOM     43  O   UNK     0       8.420  -2.985   3.762  0.00  0.00    +0.000 OA
ENDBRANCH  40  41
ENDBRANCH  39  40
ENDBRANCH  22  39
TORSDOF 8
ENDMDL
