REMARK  8 active torsions:
REMARK  status: ('A' for Active; 'I' for Inactive)
REMARK    1  A    between atoms: C_6  and  C_10 
REMARK    2  A    between atoms: C_10  and  C_11 
REMARK    3  A    between atoms: C_11  and  C_12 
REMARK    4  A    between atoms: C_17  and  C_20 
REMARK    5  A    between atoms: C_24  and  C_27 
REMARK    6  A    between atoms: C_31  and  C_34 
REMARK    7  A    between atoms: C_34  and  C_35 
REMARK    8  A    between atoms: C_35  and  C_36 
ROOT
ATOM      1  C   UNK A   1     -71.621 -36.321  29.878  1.00  0.00     0.064 A 
ATOM      2  C   UNK A   1     -66.780 -36.520  29.792  1.00  0.00     0.064 A 
ATOM      3  C   UNK A   1     -66.993 -41.257  30.776  1.00  0.00     0.064 C 
ATOM      4  C   UNK A   1     -71.805 -40.960  31.203  1.00  0.00     0.064 C 
ATOM      5  C   UNK A   1     -70.296 -35.979  29.738  1.00  0.00     0.066 A 
ATOM      6  C   UNK A   1     -69.806 -34.674  29.368  1.00  0.00    -0.021 A 
ATOM      7  C   UNK A   1     -68.472 -34.720  29.335  1.00  0.00    -0.025 A 
ATOM      8  C   UNK A   1     -68.069 -36.059  29.696  1.00  0.00     0.066 A 
ATOM      9  C   UNK A   1     -67.514 -33.567  28.980  1.00  0.00     0.051 C 
ATOM     10  C   UNK A   1     -66.417 -37.827  30.018  1.00  0.00     0.066 A 
ATOM     11  C   UNK A   1     -65.067 -38.343  29.976  1.00  0.00    -0.021 A 
ATOM     12  C   UNK A   1     -65.125 -39.659  30.237  1.00  0.00     0.000 A 
ATOM     13  C   UNK A   1     -66.513 -40.006  30.465  1.00  0.00     0.070 A 
ATOM     14  C   UNK A   1     -63.823 -37.479  29.665  1.00  0.00     0.052 C 
ATOM     15  C   UNK A   1     -68.308 -41.579  31.040  1.00  0.00     0.066 A 
ATOM     16  C   UNK A   1     -68.795 -42.848  31.544  1.00  0.00    -0.021 A 
ATOM     17  C   UNK A   1     -70.133 -42.759  31.659  1.00  0.00     0.000 A 
ATOM     18  C   UNK A   1     -70.515 -41.439  31.228  1.00  0.00     0.070 A 
ATOM     19  C   UNK A   1     -67.872 -44.042  31.875  1.00  0.00     0.052 C 
ATOM     20  C   UNK A   1     -72.180 -39.691  30.849  1.00  0.00     0.066 A 
ATOM     21  C   UNK A   1     -73.537 -39.206  30.737  1.00  0.00    -0.025 A 
ATOM     22  C   UNK A   1     -73.490 -37.920  30.374  1.00  0.00    -0.021 A 
ATOM     23  C   UNK A   1     -72.095 -37.554  30.240  1.00  0.00     0.066 A 
ATOM     24  C   UNK A   1     -74.810 -40.039  31.002  1.00  0.00     0.051 C 
ATOM     25  N   UNK A   1     -69.210 -36.804  29.932  1.00  0.00    -0.248 N 
ATOM     26  N   UNK A   1     -67.277 -38.865  30.322  1.00  0.00    -0.248 N 
ATOM     27  N   UNK A   1     -69.388 -40.748  30.865  1.00  0.00    -0.248 N 
ATOM     28  N   UNK A   1     -71.317 -38.657  30.538  1.00  0.00    -0.248 N 
ATOM     29 FE   UNK A   1     -69.302 -38.773  30.466  1.00  0.00     0.000 Fe
ENDROOT
BRANCH   6  30
ATOM     30  C   UNK A   1     -70.712 -33.471  29.044  1.00  0.00     0.052 C 
BRANCH  30  31
ATOM     31  C   UNK A   1     -70.431 -32.295  29.970  1.00  0.00     0.118 C 
BRANCH  31  32
ATOM     32  C   UNK A   1     -71.292 -31.145  29.520  1.00  0.00     0.172 C 
ATOM     33  O   UNK A   1     -71.016 -29.985  29.925  1.00  0.00    -0.648 OA
ATOM     34  O   UNK A   1     -72.252 -31.379  28.740  1.00  0.00    -0.648 OA
ENDBRANCH  31  32
ENDBRANCH  30  31
ENDBRANCH   6  30
BRANCH  22  35
ATOM     35  C   UNK A   1     -74.693 -36.980  30.129  1.00  0.00     0.052 C 
BRANCH  35  36
ATOM     36  C   UNK A   1     -74.961 -36.114  31.360  1.00  0.00     0.118 C 
BRANCH  36  37
ATOM     37  C   UNK A   1     -76.151 -35.224  31.113  1.00  0.00     0.172 C 
ATOM     38  O   UNK A   1     -76.308 -34.710  29.973  1.00  0.00    -0.648 OA
ATOM     39  O   UNK A   1     -76.944 -35.011  32.066  1.00  0.00    -0.648 OA
ENDBRANCH  36  37
ENDBRANCH  35  36
ENDBRANCH  22  35
BRANCH  17  40
ATOM     40  C   UNK A   1     -71.187 -43.783  32.143  1.00  0.00     0.004 C 
ATOM     41  C   UNK A   1     -70.848 -44.973  32.638  1.00  0.00     0.012 C 
ENDBRANCH  17  40
BRANCH  12  42
ATOM     42  C   UNK A   1     -63.964 -40.675  30.327  1.00  0.00     0.004 C 
ATOM     43  C   UNK A   1     -62.693 -40.277  30.444  1.00  0.00     0.012 C 
ENDBRANCH  12  42
TORSDOF 8
