REMARK  Name = phenylalanine_minimized.pdb
REMARK  5 active torsions:
REMARK  status: ('A' for Active; 'I' for Inactive)
REMARK    1  A    between atoms: O_1  and  C_9
REMARK    2  A    between atoms: N_3  and  CA_5
REMARK    3  A    between atoms: CB_4  and  CA_5
REMARK    4  A    between atoms: CB_4  and  CG_6
REMARK    5  A    between atoms: CA_5  and  C_9
REMARK                            x       y       z     vdW  Elec       q    Type
REMARK                         _______ _______ _______ _____ _____    ______ ____
ROOT
ATOM      1  CA  PHE A   1      -1.613  -0.252   0.352  0.00  0.00    +0.000 C 
ENDROOT
BRANCH   1   2
ATOM      2  N   PHE A   1      -1.657  -1.702   0.682  0.00  0.00    +0.000 NA
ATOM      3  H1  PHE A   1      -2.274  -1.826   1.487  0.00  0.00    +0.000 HD
ATOM      4  H2  PHE A   1      -2.139  -2.185  -0.080  0.00  0.00    +0.000 HD
ENDBRANCH   1   2
BRANCH   1   6
ATOM      5  OXT PHE A   1      -4.017  -0.457  -0.137  0.00  0.00    +0.000 OA
ATOM      6  C   PHE A   1      -3.031   0.241   0.046  0.00  0.00    +0.000 C 
BRANCH   6   7
ATOM      7  O   PHE A   1      -3.131   1.584   0.007  0.00  0.00    +0.000 OA
ATOM      8  H   PHE A   1      -4.081   1.749  -0.174  0.00  0.00    +0.000 HD
ENDBRANCH   6   7
ENDBRANCH   1   6
BRANCH   1   9
ATOM      9  CB  PHE A   1      -0.705   0.027  -0.857  0.00  0.00    +0.000 C 
BRANCH   9  10
ATOM     10  CG  PHE A   1       0.760   0.114  -0.493  0.00  0.00    +0.000 A 
ATOM     11  CD1 PHE A   1       1.371   1.361  -0.305  0.00  0.00    +0.000 A 
ATOM     12  CD2 PHE A   1       1.523  -1.049  -0.320  0.00  0.00    +0.000 A 
ATOM     13  CE1 PHE A   1       2.722   1.443   0.039  0.00  0.00    +0.000 A 
ATOM     14  CE2 PHE A   1       2.873  -0.965   0.025  0.00  0.00    +0.000 A 
ATOM     15  CZ  PHE A   1       3.472   0.280   0.203  0.00  0.00    +0.000 A 
ENDBRANCH   9  10
ENDBRANCH   1   9
TORSDOF 5
