MODEL 1
REMARK VINA RESULT:    -6.278      0.000      0.000
REMARK INTER + INTRA:          -7.872
REMARK INTER:                  -7.705
REMARK INTRA:                  -0.167
REMARK UNBOUND:                -0.125
REMARK  Name = phenylalanine_minimized.pdb
REMARK  5 active torsions:
REMARK  status: ('A' for Active; 'I' for Inactive)
REMARK    1  A    between atoms: O_1  and  C_9
REMARK    2  A    between atoms: N_3  and  CA_5
REMARK    3  A    between atoms: CB_4  and  CA_5
REMARK    4  A    between atoms: CB_4  and  CG_6
REMARK    5  A    between atoms: CA_5  and  C_9
REMARK                            x       y       z     vdW  Elec       q    Type
REMARK                         _______ _______ _______ _____ _____    ______ ____
ROOT
ATOM      1  CA  PHE A   1      14.205  11.330  29.746  0.00  0.00    +0.000 C 
ENDROOT
BRANCH   1   2
ATOM      2  N   PHE A   1      13.316  12.511  29.577  0.00  0.00    +0.000 NA
ATOM      3  H1  PHE A   1      13.903  13.343  29.500  0.00  0.00    +0.000 HD
ATOM      4  H2  PHE A   1      12.864  12.438  28.662  0.00  0.00    +0.000 HD
ENDBRANCH   1   2
BRANCH   1   6
ATOM      5  OXT PHE A   1      15.629  11.810  31.696  0.00  0.00    +0.000 OA
ATOM      6  C   PHE A   1      14.663  11.246  31.206  0.00  0.00    +0.000 C 
BRANCH   6   7
ATOM      7  O   PHE A   1      13.867  10.472  31.969  0.00  0.00    +0.000 OA
ATOM      8  H   PHE A   1      14.010  10.806  32.880  0.00  0.00    +0.000 HD
ENDBRANCH   6   7
ENDBRANCH   1   6
BRANCH   1   9
ATOM      9  CB  PHE A   1      15.438  11.414  28.830  0.00  0.00    +0.000 C 
BRANCH   9  10
ATOM     10  CG  PHE A   1      15.103  11.243  27.365  0.00  0.00    +0.000 A 
ATOM     11  CD1 PHE A   1      15.529  12.192  26.426  0.00  0.00    +0.000 A 
ATOM     12  CD2 PHE A   1      14.379  10.128  26.923  0.00  0.00    +0.000 A 
ATOM     13  CE1 PHE A   1      15.227  12.032  25.072  0.00  0.00    +0.000 A 
ATOM     14  CE2 PHE A   1      14.079   9.969  25.569  0.00  0.00    +0.000 A 
ATOM     15  CZ  PHE A   1      14.502  10.921  24.645  0.00  0.00    +0.000 A 
ENDBRANCH   9  10
ENDBRANCH   1   9
TORSDOF 5
ENDMDL
MODEL 2
REMARK VINA RESULT:    -6.126      2.278      2.795
REMARK INTER + INTRA:          -7.683
REMARK INTER:                  -7.525
REMARK INTRA:                  -0.158
REMARK UNBOUND:                -0.125
REMARK  Name = phenylalanine_minimized.pdb
REMARK  5 active torsions:
REMARK  status: ('A' for Active; 'I' for Inactive)
REMARK    1  A    between atoms: O_1  and  C_9
REMARK    2  A    between atoms: N_3  and  CA_5
REMARK    3  A    between atoms: CB_4  and  CA_5
REMARK    4  A    between atoms: CB_4  and  CG_6
REMARK    5  A    between atoms: CA_5  and  C_9
REMARK                            x       y       z     vdW  Elec       q    Type
REMARK                         _______ _______ _______ _____ _____    ______ ____
ROOT
ATOM      1  CA  PHE A   1      16.106  13.360  28.643  0.00  0.00    +0.000 C 
ENDROOT
BRANCH   1   2
ATOM      2  N   PHE A   1      16.886  14.590  28.340  0.00  0.00    +0.000 NA
ATOM      3  H1  PHE A   1      17.852  14.434  28.635  0.00  0.00    +0.000 HD
ATOM      4  H2  PHE A   1      16.947  14.683  27.323  0.00  0.00    +0.000 HD
ENDBRANCH   1   2
BRANCH   1   6
ATOM      5  OXT PHE A   1      15.904  12.630  30.986  0.00  0.00    +0.000 OA
ATOM      6  C   PHE A   1      16.580  12.775  29.978  0.00  0.00    +0.000 C 
BRANCH   6   7
ATOM      7  O   PHE A   1      17.870  12.390  29.962  0.00  0.00    +0.000 OA
ATOM      8  H   PHE A   1      18.317  13.022  30.565  0.00  0.00    +0.000 HD
ENDBRANCH   6   7
ENDBRANCH   1   6
BRANCH   1   9
ATOM      9  CB  PHE A   1      16.265  12.301  27.539  0.00  0.00    +0.000 C 
BRANCH   9  10
ATOM     10  CG  PHE A   1      15.084  12.243  26.597  0.00  0.00    +0.000 A 
ATOM     11  CD1 PHE A   1      13.777  12.361  27.089  0.00  0.00    +0.000 A 
ATOM     12  CD2 PHE A   1      15.278  12.091  25.217  0.00  0.00    +0.000 A 
ATOM     13  CE1 PHE A   1      12.686  12.315  26.219  0.00  0.00    +0.000 A 
ATOM     14  CE2 PHE A   1      14.186  12.047  24.349  0.00  0.00    +0.000 A 
ATOM     15  CZ  PHE A   1      12.891  12.158  24.850  0.00  0.00    +0.000 A 
ENDBRANCH   9  10
ENDBRANCH   1   9
TORSDOF 5
ENDMDL
MODEL 3
REMARK VINA RESULT:    -6.098      1.934      2.262
REMARK INTER + INTRA:          -7.649
REMARK INTER:                  -7.441
REMARK INTRA:                  -0.209
REMARK UNBOUND:                -0.125
REMARK  Name = phenylalanine_minimized.pdb
REMARK  5 active torsions:
REMARK  status: ('A' for Active; 'I' for Inactive)
REMARK    1  A    between atoms: O_1  and  C_9
REMARK    2  A    between atoms: N_3  and  CA_5
REMARK    3  A    between atoms: CB_4  and  CA_5
REMARK    4  A    between atoms: CB_4  and  CG_6
REMARK    5  A    between atoms: CA_5  and  C_9
REMARK                            x       y       z     vdW  Elec       q    Type
REMARK                         _______ _______ _______ _____ _____    ______ ____
ROOT
ATOM      1  CA  PHE A   1      13.991  10.549  29.233  0.00  0.00    +0.000 C 
ENDROOT
BRANCH   1   2
ATOM      2  N   PHE A   1      13.659   9.944  30.551  0.00  0.00    +0.000 NA
ATOM      3  H1  PHE A   1      12.823  10.407  30.911  0.00  0.00    +0.000 HD
ATOM      4  H2  PHE A   1      13.361   8.979  30.389  0.00  0.00    +0.000 HD
ENDBRANCH   1   2
BRANCH   1   6
ATOM      5  OXT PHE A   1      15.120  12.734  29.355  0.00  0.00    +0.000 OA
ATOM      6  C   PHE A   1      14.095  12.070  29.386  0.00  0.00    +0.000 C 
BRANCH   6   7
ATOM      7  O   PHE A   1      12.900  12.671  29.551  0.00  0.00    +0.000 OA
ATOM      8  H   PHE A   1      12.996  13.528  29.082  0.00  0.00    +0.000 HD
ENDBRANCH   6   7
ENDBRANCH   1   6
BRANCH   1   9
ATOM      9  CB  PHE A   1      12.930  10.216  28.172  0.00  0.00    +0.000 C 
BRANCH   9  10
ATOM     10  CG  PHE A   1      13.302  10.694  26.787  0.00  0.00    +0.000 A 
ATOM     11  CD1 PHE A   1      12.502  11.632  26.121  0.00  0.00    +0.000 A 
ATOM     12  CD2 PHE A   1      14.461  10.221  26.156  0.00  0.00    +0.000 A 
ATOM     13  CE1 PHE A   1      12.849  12.081  24.845  0.00  0.00    +0.000 A 
ATOM     14  CE2 PHE A   1      14.807  10.671  24.881  0.00  0.00    +0.000 A 
ATOM     15  CZ  PHE A   1      14.001  11.600  24.226  0.00  0.00    +0.000 A 
ENDBRANCH   9  10
ENDBRANCH   1   9
TORSDOF 5
ENDMDL
MODEL 4
REMARK VINA RESULT:    -6.095      1.773      1.908
REMARK INTER + INTRA:          -7.645
REMARK INTER:                  -7.447
REMARK INTRA:                  -0.199
REMARK UNBOUND:                -0.125
REMARK  Name = phenylalanine_minimized.pdb
REMARK  5 active torsions:
REMARK  status: ('A' for Active; 'I' for Inactive)
REMARK    1  A    between atoms: O_1  and  C_9
REMARK    2  A    between atoms: N_3  and  CA_5
REMARK    3  A    between atoms: CB_4  and  CA_5
REMARK    4  A    between atoms: CB_4  and  CG_6
REMARK    5  A    between atoms: CA_5  and  C_9
REMARK                            x       y       z     vdW  Elec       q    Type
REMARK                         _______ _______ _______ _____ _____    ______ ____
ROOT
ATOM      1  CA  PHE A   1      16.147  11.506  29.270  0.00  0.00    +0.000 C 
ENDROOT
BRANCH   1   2
ATOM      2  N   PHE A   1      17.597  11.811  29.406  0.00  0.00    +0.000 NA
ATOM      3  H1  PHE A   1      18.096  11.318  28.663  0.00  0.00    +0.000 HD
ATOM      4  H2  PHE A   1      17.734  12.800  29.187  0.00  0.00    +0.000 HD
ENDBRANCH   1   2
BRANCH   1   6
ATOM      5  OXT PHE A   1      16.002  11.608  31.725  0.00  0.00    +0.000 OA
ATOM      6  C   PHE A   1      15.464  11.676  30.631  0.00  0.00    +0.000 C 
BRANCH   6   7
ATOM      7  O   PHE A   1      14.146  11.940  30.536  0.00  0.00    +0.000 OA
ATOM      8  H   PHE A   1      13.732  11.337  31.189  0.00  0.00    +0.000 HD
ENDBRANCH   6   7
ENDBRANCH   1   6
BRANCH   1   9
ATOM      9  CB  PHE A   1      15.914  10.075  28.758  0.00  0.00    +0.000 C 
BRANCH   9  10
ATOM     10  CG  PHE A   1      15.089  10.024  27.492  0.00  0.00    +0.000 A 
ATOM     11  CD1 PHE A   1      15.663  10.357  26.257  0.00  0.00    +0.000 A 
ATOM     12  CD2 PHE A   1      13.746   9.625  27.530  0.00  0.00    +0.000 A 
ATOM     13  CE1 PHE A   1      14.905  10.302  25.086  0.00  0.00    +0.000 A 
ATOM     14  CE2 PHE A   1      12.990   9.570  26.358  0.00  0.00    +0.000 A 
ATOM     15  CZ  PHE A   1      13.568   9.909  25.137  0.00  0.00    +0.000 A 
ENDBRANCH   9  10
ENDBRANCH   1   9
TORSDOF 5
ENDMDL
MODEL 5
REMARK VINA RESULT:    -6.013      1.735      2.332
REMARK INTER + INTRA:          -7.545
REMARK INTER:                  -7.348
REMARK INTRA:                  -0.197
REMARK UNBOUND:                -0.125
REMARK  Name = phenylalanine_minimized.pdb
REMARK  5 active torsions:
REMARK  status: ('A' for Active; 'I' for Inactive)
REMARK    1  A    between atoms: O_1  and  C_9
REMARK    2  A    between atoms: N_3  and  CA_5
REMARK    3  A    between atoms: CB_4  and  CA_5
REMARK    4  A    between atoms: CB_4  and  CG_6
REMARK    5  A    between atoms: CA_5  and  C_9
REMARK                            x       y       z     vdW  Elec       q    Type
REMARK                         _______ _______ _______ _____ _____    ______ ____
ROOT
ATOM      1  CA  PHE A   1      16.147  11.634  29.285  0.00  0.00    +0.000 C 
ENDROOT
BRANCH   1   2
ATOM      2  N   PHE A   1      17.544  12.078  29.535  0.00  0.00    +0.000 NA
ATOM      3  H1  PHE A   1      17.618  13.061  29.267  0.00  0.00    +0.000 HD
ATOM      4  H2  PHE A   1      17.698  12.082  30.546  0.00  0.00    +0.000 HD
ENDBRANCH   1   2
BRANCH   1   6
ATOM      5  OXT PHE A   1      14.159  11.830  30.724  0.00  0.00    +0.000 OA
ATOM      6  C   PHE A   1      15.363  11.662  30.601  0.00  0.00    +0.000 C 
BRANCH   6   7
ATOM      7  O   PHE A   1      16.136  11.459  31.686  0.00  0.00    +0.000 OA
ATOM      8  H   PHE A   1      16.100  12.311  32.170  0.00  0.00    +0.000 HD
ENDBRANCH   6   7
ENDBRANCH   1   6
BRANCH   1   9
ATOM      9  CB  PHE A   1      16.100  10.215  28.695  0.00  0.00    +0.000 C 
BRANCH   9  10
ATOM     10  CG  PHE A   1      15.167  10.093  27.512  0.00  0.00    +0.000 A 
ATOM     11  CD1 PHE A   1      13.830   9.715  27.699  0.00  0.00    +0.000 A 
ATOM     12  CD2 PHE A   1      15.618  10.374  26.215  0.00  0.00    +0.000 A 
ATOM     13  CE1 PHE A   1      12.965   9.610  26.607  0.00  0.00    +0.000 A 
ATOM     14  CE2 PHE A   1      14.751  10.269  25.126  0.00  0.00    +0.000 A 
ATOM     15  CZ  PHE A   1      13.426   9.886  25.322  0.00  0.00    +0.000 A 
ENDBRANCH   9  10
ENDBRANCH   1   9
TORSDOF 5
ENDMDL
MODEL 6
REMARK VINA RESULT:    -5.850      2.656      3.643
REMARK INTER + INTRA:          -7.343
REMARK INTER:                  -7.154
REMARK INTRA:                  -0.189
REMARK UNBOUND:                -0.125
REMARK  Name = phenylalanine_minimized.pdb
REMARK  5 active torsions:
REMARK  status: ('A' for Active; 'I' for Inactive)
REMARK    1  A    between atoms: O_1  and  C_9
REMARK    2  A    between atoms: N_3  and  CA_5
REMARK    3  A    between atoms: CB_4  and  CA_5
REMARK    4  A    between atoms: CB_4  and  CG_6
REMARK    5  A    between atoms: CA_5  and  C_9
REMARK                            x       y       z     vdW  Elec       q    Type
REMARK                         _______ _______ _______ _____ _____    ______ ____
ROOT
ATOM      1  CA  PHE A   1      14.952  10.137  31.170  0.00  0.00    +0.000 C 
ENDROOT
BRANCH   1   2
ATOM      2  N   PHE A   1      13.892   9.742  32.137  0.00  0.00    +0.000 NA
ATOM      3  H1  PHE A   1      14.238   9.925  33.080  0.00  0.00    +0.000 HD
ATOM      4  H2  PHE A   1      13.107  10.388  32.027  0.00  0.00    +0.000 HD
ENDBRANCH   1   2
BRANCH   1   6
ATOM      5  OXT PHE A   1      16.397   8.211  30.660  0.00  0.00    +0.000 OA
ATOM      6  C   PHE A   1      16.156   9.204  31.330  0.00  0.00    +0.000 C 
BRANCH   6   7
ATOM      7  O   PHE A   1      16.999   9.585  32.309  0.00  0.00    +0.000 OA
ATOM      8  H   PHE A   1      17.891   9.457  31.922  0.00  0.00    +0.000 HD
ENDBRANCH   6   7
ENDBRANCH   1   6
BRANCH   1   9
ATOM      9  CB  PHE A   1      15.402  11.591  31.386  0.00  0.00    +0.000 C 
BRANCH   9  10
ATOM     10  CG  PHE A   1      15.552  12.365  30.096  0.00  0.00    +0.000 A 
ATOM     11  CD1 PHE A   1      14.727  12.082  28.999  0.00  0.00    +0.000 A 
ATOM     12  CD2 PHE A   1      16.505  13.388  29.983  0.00  0.00    +0.000 A 
ATOM     13  CE1 PHE A   1      14.860  12.801  27.809  0.00  0.00    +0.000 A 
ATOM     14  CE2 PHE A   1      16.634  14.106  28.794  0.00  0.00    +0.000 A 
ATOM     15  CZ  PHE A   1      15.813  13.812  27.707  0.00  0.00    +0.000 A 
ENDBRANCH   9  10
ENDBRANCH   1   9
TORSDOF 5
ENDMDL
MODEL 7
REMARK VINA RESULT:    -5.847      1.749      2.333
REMARK INTER + INTRA:          -7.340
REMARK INTER:                  -7.158
REMARK INTRA:                  -0.182
REMARK UNBOUND:                -0.125
REMARK  Name = phenylalanine_minimized.pdb
REMARK  5 active torsions:
REMARK  status: ('A' for Active; 'I' for Inactive)
REMARK    1  A    between atoms: O_1  and  C_9
REMARK    2  A    between atoms: N_3  and  CA_5
REMARK    3  A    between atoms: CB_4  and  CA_5
REMARK    4  A    between atoms: CB_4  and  CG_6
REMARK    5  A    between atoms: CA_5  and  C_9
REMARK                            x       y       z     vdW  Elec       q    Type
REMARK                         _______ _______ _______ _____ _____    ______ ____
ROOT
ATOM      1  CA  PHE A   1      14.903  10.186  30.807  0.00  0.00    +0.000 C 
ENDROOT
BRANCH   1   2
ATOM      2  N   PHE A   1      13.801  10.221  31.805  0.00  0.00    +0.000 NA
ATOM      3  H1  PHE A   1      13.583   9.259  32.072  0.00  0.00    +0.000 HD
ATOM      4  H2  PHE A   1      14.164  10.643  32.663  0.00  0.00    +0.000 HD
ENDBRANCH   1   2
BRANCH   1   6
ATOM      5  OXT PHE A   1      16.755   9.456  32.255  0.00  0.00    +0.000 OA
ATOM      6  C   PHE A   1      16.247  10.301  31.533  0.00  0.00    +0.000 C 
BRANCH   6   7
ATOM      7  O   PHE A   1      16.885  11.463  31.293  0.00  0.00    +0.000 OA
ATOM      8  H   PHE A   1      17.105  11.424  30.338  0.00  0.00    +0.000 HD
ENDBRANCH   6   7
ENDBRANCH   1   6
BRANCH   1   9
ATOM      9  CB  PHE A   1      14.778  11.328  29.784  0.00  0.00    +0.000 C 
BRANCH   9  10
ATOM     10  CG  PHE A   1      14.553  10.838  28.371  0.00  0.00    +0.000 A 
ATOM     11  CD1 PHE A   1      13.263  10.513  27.931  0.00  0.00    +0.000 A 
ATOM     12  CD2 PHE A   1      15.626  10.721  27.477  0.00  0.00    +0.000 A 
ATOM     13  CE1 PHE A   1      13.053  10.068  26.624  0.00  0.00    +0.000 A 
ATOM     14  CE2 PHE A   1      15.413  10.278  26.170  0.00  0.00    +0.000 A 
ATOM     15  CZ  PHE A   1      14.128   9.950  25.745  0.00  0.00    +0.000 A 
ENDBRANCH   9  10
ENDBRANCH   1   9
TORSDOF 5
ENDMDL
MODEL 8
REMARK VINA RESULT:    -5.700      2.823      3.134
REMARK INTER + INTRA:          -7.159
REMARK INTER:                  -7.033
REMARK INTRA:                  -0.125
REMARK UNBOUND:                -0.125
REMARK  Name = phenylalanine_minimized.pdb
REMARK  5 active torsions:
REMARK  status: ('A' for Active; 'I' for Inactive)
REMARK    1  A    between atoms: O_1  and  C_9
REMARK    2  A    between atoms: N_3  and  CA_5
REMARK    3  A    between atoms: CB_4  and  CA_5
REMARK    4  A    between atoms: CB_4  and  CG_6
REMARK    5  A    between atoms: CA_5  and  C_9
REMARK                            x       y       z     vdW  Elec       q    Type
REMARK                         _______ _______ _______ _____ _____    ______ ____
ROOT
ATOM      1  CA  PHE A   1      16.415  10.955  27.923  0.00  0.00    +0.000 C 
ENDROOT
BRANCH   1   2
ATOM      2  N   PHE A   1      16.844  12.319  27.514  0.00  0.00    +0.000 NA
ATOM      3  H1  PHE A   1      17.859  12.378  27.621  0.00  0.00    +0.000 HD
ATOM      4  H2  PHE A   1      16.692  12.409  26.506  0.00  0.00    +0.000 HD
ENDBRANCH   1   2
BRANCH   1   6
ATOM      5  OXT PHE A   1      18.538  10.652  29.132  0.00  0.00    +0.000 OA
ATOM      6  C   PHE A   1      17.622  10.187  28.470  0.00  0.00    +0.000 C 
BRANCH   6   7
ATOM      7  O   PHE A   1      17.599   8.873  28.170  0.00  0.00    +0.000 OA
ATOM      8  H   PHE A   1      18.514   8.569  28.350  0.00  0.00    +0.000 HD
ENDBRANCH   6   7
ENDBRANCH   1   6
BRANCH   1   9
ATOM      9  CB  PHE A   1      15.807  10.175  26.745  0.00  0.00    +0.000 C 
BRANCH   9  10
ATOM     10  CG  PHE A   1      14.655  10.899  26.084  0.00  0.00    +0.000 A 
ATOM     11  CD1 PHE A   1      14.811  11.467  24.813  0.00  0.00    +0.000 A 
ATOM     12  CD2 PHE A   1      13.412  10.995  26.723  0.00  0.00    +0.000 A 
ATOM     13  CE1 PHE A   1      13.747  12.129  24.198  0.00  0.00    +0.000 A 
ATOM     14  CE2 PHE A   1      12.348  11.656  26.106  0.00  0.00    +0.000 A 
ATOM     15  CZ  PHE A   1      12.516  12.223  24.845  0.00  0.00    +0.000 A 
ENDBRANCH   9  10
ENDBRANCH   1   9
TORSDOF 5
ENDMDL
MODEL 9
REMARK VINA RESULT:    -5.670      3.526      4.412
REMARK INTER + INTRA:          -7.121
REMARK INTER:                  -6.983
REMARK INTRA:                  -0.138
REMARK UNBOUND:                -0.125
REMARK  Name = phenylalanine_minimized.pdb
REMARK  5 active torsions:
REMARK  status: ('A' for Active; 'I' for Inactive)
REMARK    1  A    between atoms: O_1  and  C_9
REMARK    2  A    between atoms: N_3  and  CA_5
REMARK    3  A    between atoms: CB_4  and  CA_5
REMARK    4  A    between atoms: CB_4  and  CG_6
REMARK    5  A    between atoms: CA_5  and  C_9
REMARK                            x       y       z     vdW  Elec       q    Type
REMARK                         _______ _______ _______ _____ _____    ______ ____
ROOT
ATOM      1  CA  PHE A   1      17.250   9.474  30.248  0.00  0.00    +0.000 C 
ENDROOT
BRANCH   1   2
ATOM      2  N   PHE A   1      17.221   9.837  31.690  0.00  0.00    +0.000 NA
ATOM      3  H1  PHE A   1      17.938   9.289  32.170  0.00  0.00    +0.000 HD
ATOM      4  H2  PHE A   1      17.542  10.804  31.780  0.00  0.00    +0.000 HD
ENDBRANCH   1   2
BRANCH   1   6
ATOM      5  OXT PHE A   1      17.963   7.230  30.967  0.00  0.00    +0.000 OA
ATOM      6  C   PHE A   1      17.851   8.073  30.090  0.00  0.00    +0.000 C 
BRANCH   6   7
ATOM      7  O   PHE A   1      18.259   7.807  28.834  0.00  0.00    +0.000 OA
ATOM      8  H   PHE A   1      19.199   7.549  28.936  0.00  0.00    +0.000 HD
ENDBRANCH   6   7
ENDBRANCH   1   6
BRANCH   1   9
ATOM      9  CB  PHE A   1      18.077  10.478  29.428  0.00  0.00    +0.000 C 
BRANCH   9  10
ATOM     10  CG  PHE A   1      17.283  11.690  28.995  0.00  0.00    +0.000 A 
ATOM     11  CD1 PHE A   1      16.540  11.663  27.808  0.00  0.00    +0.000 A 
ATOM     12  CD2 PHE A   1      17.263  12.849  29.783  0.00  0.00    +0.000 A 
ATOM     13  CE1 PHE A   1      15.799  12.779  27.411  0.00  0.00    +0.000 A 
ATOM     14  CE2 PHE A   1      16.521  13.962  29.386  0.00  0.00    +0.000 A 
ATOM     15  CZ  PHE A   1      15.791  13.928  28.200  0.00  0.00    +0.000 A 
ENDBRANCH   9  10
ENDBRANCH   1   9
TORSDOF 5
ENDMDL
