MODEL 1
REMARK VINA RESULT:    -6.166      0.000      0.000
REMARK INTER + INTRA:          -7.793
REMARK INTER:                  -7.600
REMARK INTRA:                  -0.193
REMARK UNBOUND:                -0.184
REMARK  Name = ferulic_minimized.pdb
REMARK  6 active torsions:
REMARK  status: ('A' for Active; 'I' for Inactive)
REMARK    1  A    between atoms: O_1  and  C_6
REMARK    2  A    between atoms: O_1  and  C_13
REMARK    3  A    between atoms: O_2  and  C_9
REMARK    4  A    between atoms: O_3  and  C_14
REMARK    5  A    between atoms: C_5  and  C_11
REMARK    6  A    between atoms: C_12  and  C_14
REMARK                            x       y       z     vdW  Elec       q    Type
REMARK                         _______ _______ _______ _____ _____    ______ ____
ROOT
ATOM      1  C   UNL     1       4.490  -0.696  -6.053  0.00  0.00    +0.000 A 
ATOM      2  C   UNL     1       6.223  -1.224  -7.686  0.00  0.00    +0.000 A 
ATOM      3  C   UNL     1       5.843  -0.740  -6.428  0.00  0.00    +0.000 A 
ATOM      4  C   UNL     1       3.515  -1.117  -6.964  0.00  0.00    +0.000 A 
ATOM      5  C   UNL     1       5.226  -1.654  -8.573  0.00  0.00    +0.000 A 
ATOM      6  C   UNL     1       3.879  -1.602  -8.221  0.00  0.00    +0.000 A 
ENDROOT
BRANCH   2   7
ATOM      7  O   UNL     1       7.513  -1.311  -8.140  0.00  0.00    +0.000 OA
ATOM      8  C   UNL     1       8.538  -1.503  -7.176  0.00  0.00    +0.000 C 
ENDBRANCH   2   7
BRANCH   5   9
ATOM      9  O   UNL     1       5.588  -2.131  -9.806  0.00  0.00    +0.000 OA
ATOM     10  H   UNL     1       5.092  -1.654 -10.489  0.00  0.00    +0.000 HD
ENDBRANCH   5   9
BRANCH   1  11
ATOM     11  C   UNL     1       4.055  -0.171  -4.751  0.00  0.00    +0.000 C 
ATOM     12  C   UNL     1       4.556  -0.579  -3.575  0.00  0.00    +0.000 C 
BRANCH  12  14
ATOM     13  O   UNL     1       3.800  -0.582  -1.287  0.00  0.00    +0.000 OA
ATOM     14  C   UNL     1       4.041  -0.002  -2.327  0.00  0.00    +0.000 C 
BRANCH  14  15
ATOM     15  O   UNL     1       3.852   1.319  -2.473  0.00  0.00    +0.000 OA
ATOM     16  H   UNL     1       4.093   1.687  -1.598  0.00  0.00    +0.000 HD
ENDBRANCH  14  15
ENDBRANCH  12  14
ENDBRANCH   1  11
TORSDOF 5
ENDMDL
MODEL 2
REMARK VINA RESULT:    -5.987      2.709      5.073
REMARK INTER + INTRA:          -7.572
REMARK INTER:                  -7.383
REMARK INTRA:                  -0.189
REMARK UNBOUND:                -0.184
REMARK  Name = ferulic_minimized.pdb
REMARK  6 active torsions:
REMARK  status: ('A' for Active; 'I' for Inactive)
REMARK    1  A    between atoms: O_1  and  C_6
REMARK    2  A    between atoms: O_1  and  C_13
REMARK    3  A    between atoms: O_2  and  C_9
REMARK    4  A    between atoms: O_3  and  C_14
REMARK    5  A    between atoms: C_5  and  C_11
REMARK    6  A    between atoms: C_12  and  C_14
REMARK                            x       y       z     vdW  Elec       q    Type
REMARK                         _______ _______ _______ _____ _____    ______ ____
ROOT
ATOM      1  C   UNL     1       7.450  -0.956  -6.485  0.00  0.00    +0.000 A 
ATOM      2  C   UNL     1       5.056  -0.927  -6.019  0.00  0.00    +0.000 A 
ATOM      3  C   UNL     1       6.384  -0.920  -5.572  0.00  0.00    +0.000 A 
ATOM      4  C   UNL     1       7.174  -1.028  -7.855  0.00  0.00    +0.000 A 
ATOM      5  C   UNL     1       4.809  -0.983  -7.397  0.00  0.00    +0.000 A 
ATOM      6  C   UNL     1       5.856  -1.035  -8.314  0.00  0.00    +0.000 A 
ENDROOT
BRANCH   2   7
ATOM      7  O   UNL     1       3.952  -0.889  -5.208  0.00  0.00    +0.000 OA
ATOM      8  C   UNL     1       4.119  -1.275  -3.852  0.00  0.00    +0.000 C 
ENDBRANCH   2   7
BRANCH   5   9
ATOM      9  O   UNL     1       3.514  -0.989  -7.845  0.00  0.00    +0.000 OA
ATOM     10  H   UNL     1       2.940  -0.608  -7.163  0.00  0.00    +0.000 HD
ENDBRANCH   5   9
BRANCH   1  11
ATOM     11  C   UNL     1       8.854  -0.975  -6.049  0.00  0.00    +0.000 C 
ATOM     12  C   UNL     1       9.639   0.112  -6.008  0.00  0.00    +0.000 C 
BRANCH  12  14
ATOM     13  O   UNL     1      11.783  -0.957  -5.748  0.00  0.00    +0.000 OA
ATOM     14  C   UNL     1      11.035  -0.016  -5.571  0.00  0.00    +0.000 C 
BRANCH  14  15
ATOM     15  O   UNL     1      11.415   1.091  -4.913  0.00  0.00    +0.000 OA
ATOM     16  H   UNL     1      10.571   1.550  -4.722  0.00  0.00    +0.000 HD
ENDBRANCH  14  15
ENDBRANCH  12  14
ENDBRANCH   1  11
TORSDOF 5
ENDMDL
MODEL 3
REMARK VINA RESULT:    -5.888      3.896      5.423
REMARK INTER + INTRA:          -7.449
REMARK INTER:                  -7.250
REMARK INTRA:                  -0.199
REMARK UNBOUND:                -0.184
REMARK  Name = ferulic_minimized.pdb
REMARK  6 active torsions:
REMARK  status: ('A' for Active; 'I' for Inactive)
REMARK    1  A    between atoms: O_1  and  C_6
REMARK    2  A    between atoms: O_1  and  C_13
REMARK    3  A    between atoms: O_2  and  C_9
REMARK    4  A    between atoms: O_3  and  C_14
REMARK    5  A    between atoms: C_5  and  C_11
REMARK    6  A    between atoms: C_12  and  C_14
REMARK                            x       y       z     vdW  Elec       q    Type
REMARK                         _______ _______ _______ _____ _____    ______ ____
ROOT
ATOM      1  C   UNL     1       7.669  -0.811  -7.758  0.00  0.00    +0.000 A 
ATOM      2  C   UNL     1       9.860   0.260  -7.779  0.00  0.00    +0.000 A 
ATOM      3  C   UNL     1       8.697  -0.146  -8.446  0.00  0.00    +0.000 A 
ATOM      4  C   UNL     1       7.828  -1.091  -6.396  0.00  0.00    +0.000 A 
ATOM      5  C   UNL     1       9.986  -0.019  -6.411  0.00  0.00    +0.000 A 
ATOM      6  C   UNL     1       8.981  -0.691  -5.719  0.00  0.00    +0.000 A 
ENDROOT
BRANCH   2   7
ATOM      7  O   UNL     1      10.912   0.917  -8.360  0.00  0.00    +0.000 OA
ATOM      8  C   UNL     1      10.612   1.981  -9.252  0.00  0.00    +0.000 C 
ENDBRANCH   2   7
BRANCH   5   9
ATOM      9  O   UNL     1      11.119   0.376  -5.749  0.00  0.00    +0.000 OA
ATOM     10  H   UNL     1      11.366   1.266  -6.045  0.00  0.00    +0.000 HD
ENDBRANCH   5   9
BRANCH   1  11
ATOM     11  C   UNL     1       6.447  -1.273  -8.432  0.00  0.00    +0.000 C 
ATOM     12  C   UNL     1       5.207  -0.947  -8.039  0.00  0.00    +0.000 C 
BRANCH  12  14
ATOM     13  O   UNL     1       3.547  -2.576  -8.671  0.00  0.00    +0.000 OA
ATOM     14  C   UNL     1       4.050  -1.475  -8.773  0.00  0.00    +0.000 C 
BRANCH  14  15
ATOM     15  O   UNL     1       3.582  -0.548  -9.624  0.00  0.00    +0.000 OA
ATOM     16  H   UNL     1       3.089   0.071  -9.046  0.00  0.00    +0.000 HD
ENDBRANCH  14  15
ENDBRANCH  12  14
ENDBRANCH   1  11
TORSDOF 5
ENDMDL
MODEL 4
REMARK VINA RESULT:    -5.841      2.870      4.927
REMARK INTER + INTRA:          -7.391
REMARK INTER:                  -7.257
REMARK INTRA:                  -0.134
REMARK UNBOUND:                -0.184
REMARK  Name = ferulic_minimized.pdb
REMARK  6 active torsions:
REMARK  status: ('A' for Active; 'I' for Inactive)
REMARK    1  A    between atoms: O_1  and  C_6
REMARK    2  A    between atoms: O_1  and  C_13
REMARK    3  A    between atoms: O_2  and  C_9
REMARK    4  A    between atoms: O_3  and  C_14
REMARK    5  A    between atoms: C_5  and  C_11
REMARK    6  A    between atoms: C_12  and  C_14
REMARK                            x       y       z     vdW  Elec       q    Type
REMARK                         _______ _______ _______ _____ _____    ______ ____
ROOT
ATOM      1  C   UNL     1       7.604  -0.948  -6.822  0.00  0.00    +0.000 A 
ATOM      2  C   UNL     1       5.760  -1.050  -8.416  0.00  0.00    +0.000 A 
ATOM      3  C   UNL     1       7.134  -1.014  -8.144  0.00  0.00    +0.000 A 
ATOM      4  C   UNL     1       6.682  -0.889  -5.771  0.00  0.00    +0.000 A 
ATOM      5  C   UNL     1       4.859  -1.006  -7.343  0.00  0.00    +0.000 A 
ATOM      6  C   UNL     1       5.311  -0.924  -6.027  0.00  0.00    +0.000 A 
ENDROOT
BRANCH   2   7
ATOM      7  O   UNL     1       5.206  -1.120  -9.666  0.00  0.00    +0.000 OA
ATOM      8  C   UNL     1       5.016  -2.410 -10.230  0.00  0.00    +0.000 C 
ENDBRANCH   2   7
BRANCH   5   9
ATOM      9  O   UNL     1       3.513  -1.042  -7.597  0.00  0.00    +0.000 OA
ATOM     10  H   UNL     1       3.357  -1.543  -8.412  0.00  0.00    +0.000 HD
ENDBRANCH   5   9
BRANCH   1  11
ATOM     11  C   UNL     1       9.038  -0.884  -6.504  0.00  0.00    +0.000 C 
ATOM     12  C   UNL     1       9.574  -0.014  -5.636  0.00  0.00    +0.000 C 
BRANCH  12  14
ATOM     13  O   UNL     1      11.821  -0.881  -5.716  0.00  0.00    +0.000 OA
ATOM     14  C   UNL     1      11.023  -0.021  -5.400  0.00  0.00    +0.000 C 
BRANCH  14  15
ATOM     15  O   UNL     1      11.390   1.097  -4.754  0.00  0.00    +0.000 OA
ATOM     16  H   UNL     1      10.659   1.723  -4.937  0.00  0.00    +0.000 HD
ENDBRANCH  14  15
ENDBRANCH  12  14
ENDBRANCH   1  11
TORSDOF 5
ENDMDL
MODEL 5
REMARK VINA RESULT:    -5.739      2.885      6.541
REMARK INTER + INTRA:          -7.265
REMARK INTER:                  -7.069
REMARK INTRA:                  -0.196
REMARK UNBOUND:                -0.184
REMARK  Name = ferulic_minimized.pdb
REMARK  6 active torsions:
REMARK  status: ('A' for Active; 'I' for Inactive)
REMARK    1  A    between atoms: O_1  and  C_6
REMARK    2  A    between atoms: O_1  and  C_13
REMARK    3  A    between atoms: O_2  and  C_9
REMARK    4  A    between atoms: O_3  and  C_14
REMARK    5  A    between atoms: C_5  and  C_11
REMARK    6  A    between atoms: C_12  and  C_14
REMARK                            x       y       z     vdW  Elec       q    Type
REMARK                         _______ _______ _______ _____ _____    ______ ____
ROOT
ATOM      1  C   UNL     1       8.138  -0.655  -7.722  0.00  0.00    +0.000 A 
ATOM      2  C   UNL     1       5.826  -0.834  -6.965  0.00  0.00    +0.000 A 
ATOM      3  C   UNL     1       6.759  -0.606  -7.985  0.00  0.00    +0.000 A 
ATOM      4  C   UNL     1       8.576  -0.908  -6.418  0.00  0.00    +0.000 A 
ATOM      5  C   UNL     1       6.293  -1.101  -5.671  0.00  0.00    +0.000 A 
ATOM      6  C   UNL     1       7.658  -1.137  -5.392  0.00  0.00    +0.000 A 
ENDROOT
BRANCH   2   7
ATOM      7  O   UNL     1       4.465  -0.813  -7.123  0.00  0.00    +0.000 OA
ATOM      8  C   UNL     1       3.928  -1.437  -8.281  0.00  0.00    +0.000 C 
ENDBRANCH   2   7
BRANCH   5   9
ATOM      9  O   UNL     1       5.389  -1.327  -4.667  0.00  0.00    +0.000 OA
ATOM     10  H   UNL     1       4.563  -0.863  -4.872  0.00  0.00    +0.000 HD
ENDBRANCH   5   9
BRANCH   1  11
ATOM     11  C   UNL     1       9.143  -0.396  -8.764  0.00  0.00    +0.000 C 
ATOM     12  C   UNL     1       9.851   0.739  -8.855  0.00  0.00    +0.000 C 
BRANCH  12  14
ATOM     13  O   UNL     1      11.384   0.032 -10.575  0.00  0.00    +0.000 OA
ATOM     14  C   UNL     1      10.821   0.905  -9.944  0.00  0.00    +0.000 C 
BRANCH  14  15
ATOM     15  O   UNL     1      11.030   2.210 -10.179  0.00  0.00    +0.000 OA
ATOM     16  H   UNL     1      10.462   2.402 -10.954  0.00  0.00    +0.000 HD
ENDBRANCH  14  15
ENDBRANCH  12  14
ENDBRANCH   1  11
TORSDOF 5
ENDMDL
MODEL 6
REMARK VINA RESULT:    -5.563      2.609      5.194
REMARK INTER + INTRA:          -7.049
REMARK INTER:                  -6.860
REMARK INTRA:                  -0.188
REMARK UNBOUND:                -0.184
REMARK  Name = ferulic_minimized.pdb
REMARK  6 active torsions:
REMARK  status: ('A' for Active; 'I' for Inactive)
REMARK    1  A    between atoms: O_1  and  C_6
REMARK    2  A    between atoms: O_1  and  C_13
REMARK    3  A    between atoms: O_2  and  C_9
REMARK    4  A    between atoms: O_3  and  C_14
REMARK    5  A    between atoms: C_5  and  C_11
REMARK    6  A    between atoms: C_12  and  C_14
REMARK                            x       y       z     vdW  Elec       q    Type
REMARK                         _______ _______ _______ _____ _____    ______ ____
ROOT
ATOM      1  C   UNL     1       7.475  -1.065  -7.408  0.00  0.00    +0.000 A 
ATOM      2  C   UNL     1       5.036  -1.104  -7.377  0.00  0.00    +0.000 A 
ATOM      3  C   UNL     1       6.256  -0.790  -6.766  0.00  0.00    +0.000 A 
ATOM      4  C   UNL     1       7.460  -1.687  -8.662  0.00  0.00    +0.000 A 
ATOM      5  C   UNL     1       5.051  -1.712  -8.640  0.00  0.00    +0.000 A 
ATOM      6  C   UNL     1       6.251  -2.006  -9.282  0.00  0.00    +0.000 A 
ENDROOT
BRANCH   2   7
ATOM      7  O   UNL     1       3.800  -0.870  -6.834  0.00  0.00    +0.000 OA
ATOM      8  C   UNL     1       3.746  -0.462  -5.474  0.00  0.00    +0.000 C 
ENDBRANCH   2   7
BRANCH   5   9
ATOM      9  O   UNL     1       3.862  -2.023  -9.247  0.00  0.00    +0.000 OA
ATOM     10  H   UNL     1       3.424  -1.204  -9.526  0.00  0.00    +0.000 HD
ENDBRANCH   5   9
BRANCH   1  11
ATOM     11  C   UNL     1       8.773  -0.770  -6.785  0.00  0.00    +0.000 C 
ATOM     12  C   UNL     1       9.645   0.129  -7.263  0.00  0.00    +0.000 C 
BRANCH  12  14
ATOM     13  O   UNL     1      11.155   0.223  -5.386  0.00  0.00    +0.000 OA
ATOM     14  C   UNL     1      10.925   0.338  -6.574  0.00  0.00    +0.000 C 
BRANCH  14  15
ATOM     15  O   UNL     1      11.871   0.695  -7.457  0.00  0.00    +0.000 OA
ATOM     16  H   UNL     1      11.831  -0.008  -8.138  0.00  0.00    +0.000 HD
ENDBRANCH  14  15
ENDBRANCH  12  14
ENDBRANCH   1  11
TORSDOF 5
ENDMDL
MODEL 7
REMARK VINA RESULT:    -5.491      3.600      5.481
REMARK INTER + INTRA:          -6.959
REMARK INTER:                  -6.746
REMARK INTRA:                  -0.214
REMARK UNBOUND:                -0.184
REMARK  Name = ferulic_minimized.pdb
REMARK  6 active torsions:
REMARK  status: ('A' for Active; 'I' for Inactive)
REMARK    1  A    between atoms: O_1  and  C_6
REMARK    2  A    between atoms: O_1  and  C_13
REMARK    3  A    between atoms: O_2  and  C_9
REMARK    4  A    between atoms: O_3  and  C_14
REMARK    5  A    between atoms: C_5  and  C_11
REMARK    6  A    between atoms: C_12  and  C_14
REMARK                            x       y       z     vdW  Elec       q    Type
REMARK                         _______ _______ _______ _____ _____    ______ ____
ROOT
ATOM      1  C   UNL     1       7.939  -0.613  -7.632  0.00  0.00    +0.000 A 
ATOM      2  C   UNL     1      10.038  -0.078  -6.509  0.00  0.00    +0.000 A 
ATOM      3  C   UNL     1       8.739  -0.600  -6.476  0.00  0.00    +0.000 A 
ATOM      4  C   UNL     1       8.446  -0.071  -8.818  0.00  0.00    +0.000 A 
ATOM      5  C   UNL     1      10.525   0.444  -7.715  0.00  0.00    +0.000 A 
ATOM      6  C   UNL     1       9.739   0.452  -8.865  0.00  0.00    +0.000 A 
ENDROOT
BRANCH   2   7
ATOM      7  O   UNL     1      10.893  -0.026  -5.440  0.00  0.00    +0.000 OA
ATOM      8  C   UNL     1      10.655   0.971  -4.456  0.00  0.00    +0.000 C 
ENDBRANCH   2   7
BRANCH   5   9
ATOM      9  O   UNL     1      11.796   0.956  -7.758  0.00  0.00    +0.000 OA
ATOM     10  H   UNL     1      12.434   0.227  -7.719  0.00  0.00    +0.000 HD
ENDBRANCH   5   9
BRANCH   1  11
ATOM     11  C   UNL     1       6.564  -1.130  -7.626  0.00  0.00    +0.000 C 
ATOM     12  C   UNL     1       5.842  -1.348  -8.735  0.00  0.00    +0.000 C 
BRANCH  12  14
ATOM     13  O   UNL     1       3.979  -2.807  -9.192  0.00  0.00    +0.000 OA
ATOM     14  C   UNL     1       4.468  -1.852  -8.621  0.00  0.00    +0.000 C 
BRANCH  14  15
ATOM     15  O   UNL     1       3.768  -1.093  -7.763  0.00  0.00    +0.000 OA
ATOM     16  H   UNL     1       3.288  -1.745  -7.212  0.00  0.00    +0.000 HD
ENDBRANCH  14  15
ENDBRANCH  12  14
ENDBRANCH   1  11
TORSDOF 5
ENDMDL
MODEL 8
REMARK VINA RESULT:    -5.302      2.348      3.964
REMARK INTER + INTRA:          -6.726
REMARK INTER:                  -6.542
REMARK INTRA:                  -0.184
REMARK UNBOUND:                -0.184
REMARK  Name = ferulic_minimized.pdb
REMARK  6 active torsions:
REMARK  status: ('A' for Active; 'I' for Inactive)
REMARK    1  A    between atoms: O_1  and  C_6
REMARK    2  A    between atoms: O_1  and  C_13
REMARK    3  A    between atoms: O_2  and  C_9
REMARK    4  A    between atoms: O_3  and  C_14
REMARK    5  A    between atoms: C_5  and  C_11
REMARK    6  A    between atoms: C_12  and  C_14
REMARK                            x       y       z     vdW  Elec       q    Type
REMARK                         _______ _______ _______ _____ _____    ______ ____
ROOT
ATOM      1  C   UNL     1       7.929  -0.803  -6.302  0.00  0.00    +0.000 A 
ATOM      2  C   UNL     1       8.692  -0.411  -8.585  0.00  0.00    +0.000 A 
ATOM      3  C   UNL     1       7.711  -0.852  -7.689  0.00  0.00    +0.000 A 
ATOM      4  C   UNL     1       9.155  -0.330  -5.820  0.00  0.00    +0.000 A 
ATOM      5  C   UNL     1       9.904   0.073  -8.074  0.00  0.00    +0.000 A 
ATOM      6  C   UNL     1      10.141   0.113  -6.702  0.00  0.00    +0.000 A 
ENDROOT
BRANCH   2   7
ATOM      7  O   UNL     1       8.571  -0.414  -9.950  0.00  0.00    +0.000 OA
ATOM      8  C   UNL     1       7.619  -1.299 -10.523  0.00  0.00    +0.000 C 
ENDBRANCH   2   7
BRANCH   5   9
ATOM      9  O   UNL     1      10.870   0.509  -8.942  0.00  0.00    +0.000 OA
ATOM     10  H   UNL     1      11.505   1.061  -8.461  0.00  0.00    +0.000 HD
ENDBRANCH   5   9
BRANCH   1  11
ATOM     11  C   UNL     1       6.930  -1.281  -5.335  0.00  0.00    +0.000 C 
ATOM     12  C   UNL     1       5.677  -0.810  -5.258  0.00  0.00    +0.000 C 
BRANCH  12  14
ATOM     13  O   UNL     1       5.005  -1.591  -3.080  0.00  0.00    +0.000 OA
ATOM     14  C   UNL     1       4.760  -1.344  -4.244  0.00  0.00    +0.000 C 
BRANCH  14  15
ATOM     15  O   UNL     1       3.546  -1.544  -4.780  0.00  0.00    +0.000 OA
ATOM     16  H   UNL     1       3.440  -0.795  -5.403  0.00  0.00    +0.000 HD
ENDBRANCH  14  15
ENDBRANCH  12  14
ENDBRANCH   1  11
TORSDOF 5
ENDMDL
