MODEL 1
REMARK VINA RESULT:   -10.897      0.000      0.000
REMARK INTER + INTRA:         -15.732
REMARK INTER:                 -14.398
REMARK INTRA:                  -1.334
REMARK UNBOUND:                 0.261
REMARK  Name = porphyrin.pdb
REMARK  12 active torsions:
REMARK  status: ('A' for Active; 'I' for Inactive)
REMARK    1  A    between atoms: C_6  and  C_10
REMARK    2  A    between atoms: C_7  and  C_9
REMARK    3  A    between atoms: C_10  and  C_11
REMARK    4  A    between atoms: C_11  and  C_12
REMARK    5  A    between atoms: C_16  and  C_19
REMARK    6  A    between atoms: C_17  and  C_20
REMARK    7  A    between atoms: C_23  and  C_26
REMARK    8  A    between atoms: C_24  and  C_27
REMARK    9  A    between atoms: C_30  and  C_33
REMARK   10  A    between atoms: C_31  and  C_34
REMARK   11  A    between atoms: C_34  and  C_35
REMARK   12  A    between atoms: C_35  and  C_36
REMARK                            x       y       z     vdW  Elec       q    Type
REMARK                         _______ _______ _______ _____ _____    ______ ____
ROOT
ATOM      1  C   UNK     0       5.379  -2.987  -1.782  0.00  0.00    +0.000 C 
ATOM      2  C   UNK     0       7.356   1.372  -1.023  0.00  0.00    +0.000 C 
ATOM      3  C   UNK     0       3.565   2.570   1.742  0.00  0.00    +0.000 C 
ATOM      4  C   UNK     0       1.450  -1.653   0.686  0.00  0.00    +0.000 C 
ATOM      5  C   UNK     0       6.251  -1.923  -1.785  0.00  0.00    +0.000 A 
ATOM      6  C   UNK     0       7.541  -1.903  -2.431  0.00  0.00    +0.000 A 
ATOM      7  C   UNK     0       8.096  -0.708  -2.222  0.00  0.00    +0.000 A 
ATOM      8  C   UNK     0       7.169   0.079  -1.443  0.00  0.00    +0.000 A 
ATOM      9  C   UNK     0       9.476  -0.229  -2.714  0.00  0.00    +0.000 C 
ATOM     10  C   UNK     0       6.517   2.064  -0.182  0.00  0.00    +0.000 C 
ATOM     11  C   UNK     0       6.780   3.371   0.378  0.00  0.00    +0.000 C 
ATOM     12  C   UNK     0       5.736   3.701   1.155  0.00  0.00    +0.000 C 
ATOM     13  C   UNK     0       4.778   2.615   1.096  0.00  0.00    +0.000 C 
ATOM     14  C   UNK     0       8.065   4.185   0.101  0.00  0.00    +0.000 C 
ATOM     15  C   UNK     0       2.632   1.559   1.649  0.00  0.00    +0.000 A 
ATOM     16  C   UNK     0       1.283   1.586   2.178  0.00  0.00    +0.000 A 
ATOM     17  C   UNK     0       0.701   0.408   1.882  0.00  0.00    +0.000 A 
ATOM     18  C   UNK     0       1.669  -0.382   1.166  0.00  0.00    +0.000 A 
ATOM     19  C   UNK     0       0.689   2.797   2.931  0.00  0.00    +0.000 C 
ATOM     20  C   UNK     0       2.339  -2.397  -0.043  0.00  0.00    +0.000 C 
ATOM     21  C   UNK     0       2.150  -3.763  -0.478  0.00  0.00    +0.000 C 
ATOM     22  C   UNK     0       3.235  -4.134  -1.164  0.00  0.00    +0.000 C 
ATOM     23  C   UNK     0       4.148  -3.011  -1.181  0.00  0.00    +0.000 C 
ATOM     24  C   UNK     0       0.902  -4.627  -0.195  0.00  0.00    +0.000 C 
ATOM     25  N   UNK     0       6.053  -0.697  -1.189  0.00  0.00    +0.000 N 
ATOM     26  N   UNK     0       5.287   1.630   0.272  0.00  0.00    +0.000 N 
ATOM     27  N   UNK     0       2.825   0.344   1.037  0.00  0.00    +0.000 N 
ATOM     28  N   UNK     0       3.573  -1.962  -0.489  0.00  0.00    +0.000 N 
ATOM     29 FE   UNK     0       4.397  -0.154  -0.125  0.00  0.00    +0.000 Fe
ENDROOT
BRANCH  12  30
ATOM     30  C   UNK     0       5.510   4.995   1.968  0.00  0.00    +0.000 C 
ATOM     31  C   UNK     0       4.855   6.040   1.453  0.00  0.00    +0.000 C 
ENDBRANCH  12  30
BRANCH  17  32
ATOM     32  C   UNK     0      -0.717  -0.135   2.181  0.00  0.00    +0.000 C 
ATOM     33  C   UNK     0      -1.022  -0.727   3.336  0.00  0.00    +0.000 C 
ENDBRANCH  17  32
BRANCH   6  34
ATOM     34  C   UNK     0       8.144  -3.099  -3.193  0.00  0.00    +0.000 C 
BRANCH  34  35
ATOM     35  C   UNK     0       8.973  -3.985  -2.275  0.00  0.00    +0.000 C 
BRANCH  35  36
ATOM     36  C   UNK     0       8.625  -5.416  -2.586  0.00  0.00    +0.000 C 
ATOM     37  O   UNK     0       9.505  -6.159  -3.095  0.00  0.00    +0.000 OA
ATOM     38  O   UNK     0       7.467  -5.829  -2.313  0.00  0.00    +0.000 OA
ENDBRANCH  35  36
ENDBRANCH  34  35
ENDBRANCH   6  34
BRANCH  22  39
ATOM     39  C   UNK     0       3.491  -5.510  -1.823  0.00  0.00    +0.000 C 
BRANCH  39  40
ATOM     40  C   UNK     0       4.035  -6.506  -0.798  0.00  0.00    +0.000 C 
BRANCH  40  41
ATOM     41  C   UNK     0       3.194  -7.756  -0.799  0.00  0.00    +0.000 C 
ATOM     42  O   UNK     0       3.508  -8.707  -1.564  0.00  0.00    +0.000 OA
ATOM     43  O   UNK     0       2.192  -7.800  -0.040  0.00  0.00    +0.000 OA
ENDBRANCH  40  41
ENDBRANCH  39  40
ENDBRANCH  22  39
TORSDOF 8
ENDMDL
MODEL 2
REMARK VINA RESULT:   -10.629      1.916      6.174
REMARK INTER + INTRA:         -15.338
REMARK INTER:                 -14.438
REMARK INTRA:                  -0.901
REMARK UNBOUND:                 0.261
REMARK  Name = porphyrin.pdb
REMARK  12 active torsions:
REMARK  status: ('A' for Active; 'I' for Inactive)
REMARK    1  A    between atoms: C_6  and  C_10
REMARK    2  A    between atoms: C_7  and  C_9
REMARK    3  A    between atoms: C_10  and  C_11
REMARK    4  A    between atoms: C_11  and  C_12
REMARK    5  A    between atoms: C_16  and  C_19
REMARK    6  A    between atoms: C_17  and  C_20
REMARK    7  A    between atoms: C_23  and  C_26
REMARK    8  A    between atoms: C_24  and  C_27
REMARK    9  A    between atoms: C_30  and  C_33
REMARK   10  A    between atoms: C_31  and  C_34
REMARK   11  A    between atoms: C_34  and  C_35
REMARK   12  A    between atoms: C_35  and  C_36
REMARK                            x       y       z     vdW  Elec       q    Type
REMARK                         _______ _______ _______ _____ _____    ______ ____
ROOT
ATOM      1  C   UNK     0       1.671  -1.545   0.334  0.00  0.00    +0.000 C 
ATOM      2  C   UNK     0       5.805  -2.331  -2.071  0.00  0.00    +0.000 C 
ATOM      3  C   UNK     0       7.505   1.908  -0.462  0.00  0.00    +0.000 C 
ATOM      4  C   UNK     0       3.244   2.829   1.641  0.00  0.00    +0.000 C 
ATOM      5  C   UNK     0       2.656  -2.133  -0.426  0.00  0.00    +0.000 A 
ATOM      6  C   UNK     0       2.577  -3.442  -1.027  0.00  0.00    +0.000 A 
ATOM      7  C   UNK     0       3.714  -3.670  -1.687  0.00  0.00    +0.000 A 
ATOM      8  C   UNK     0       4.553  -2.504  -1.536  0.00  0.00    +0.000 A 
ATOM      9  C   UNK     0       4.088  -4.940  -2.476  0.00  0.00    +0.000 C 
ATOM     10  C   UNK     0       6.638  -1.267  -1.818  0.00  0.00    +0.000 C 
ATOM     11  C   UNK     0       8.008  -1.148  -2.263  0.00  0.00    +0.000 C 
ATOM     12  C   UNK     0       8.486   0.021  -1.807  0.00  0.00    +0.000 C 
ATOM     13  C   UNK     0       7.424   0.679  -1.074  0.00  0.00    +0.000 C 
ATOM     14  C   UNK     0       8.739  -2.224  -3.100  0.00  0.00    +0.000 C 
ATOM     15  C   UNK     0       6.481   2.557   0.195  0.00  0.00    +0.000 A 
ATOM     16  C   UNK     0       6.504   3.922   0.683  0.00  0.00    +0.000 A 
ATOM     17  C   UNK     0       5.317   4.171   1.267  0.00  0.00    +0.000 A 
ATOM     18  C   UNK     0       4.526   2.971   1.163  0.00  0.00    +0.000 A 
ATOM     19  C   UNK     0       7.716   4.865   0.513  0.00  0.00    +0.000 C 
ATOM     20  C   UNK     0       2.459   1.715   1.502  0.00  0.00    +0.000 C 
ATOM     21  C   UNK     0       1.144   1.525   2.074  0.00  0.00    +0.000 C 
ATOM     22  C   UNK     0       0.705   0.316   1.711  0.00  0.00    +0.000 C 
ATOM     23  C   UNK     0       1.734  -0.299   0.899  0.00  0.00    +0.000 C 
ATOM     24  C   UNK     0       0.390   2.553   2.945  0.00  0.00    +0.000 C 
ATOM     25  N   UNK     0       3.876  -1.585  -0.755  0.00  0.00    +0.000 N 
ATOM     26  N   UNK     0       6.308  -0.134  -1.098  0.00  0.00    +0.000 N 
ATOM     27  N   UNK     0       5.257   2.016   0.505  0.00  0.00    +0.000 N 
ATOM     28  N   UNK     0       2.795   0.580   0.788  0.00  0.00    +0.000 N 
ATOM     29 FE   UNK     0       4.541   0.256  -0.173  0.00  0.00    +0.000 Fe
ENDROOT
BRANCH  12  30
ATOM     30  C   UNK     0       9.889   0.634  -2.014  0.00  0.00    +0.000 C 
ATOM     31  C   UNK     0      10.072   1.729  -2.759  0.00  0.00    +0.000 C 
ENDBRANCH  12  30
BRANCH  17  32
ATOM     32  C   UNK     0       4.763   5.441   1.955  0.00  0.00    +0.000 C 
ATOM     33  C   UNK     0       3.864   6.233   1.370  0.00  0.00    +0.000 C 
ENDBRANCH  17  32
BRANCH   6  34
ATOM     34  C   UNK     0       1.372  -4.390  -0.875  0.00  0.00    +0.000 C 
BRANCH  34  35
ATOM     35  C   UNK     0       1.602  -5.411   0.230  0.00  0.00    +0.000 C 
BRANCH  35  36
ATOM     36  C   UNK     0       1.517  -6.781  -0.389  0.00  0.00    +0.000 C 
ATOM     37  O   UNK     0       1.302  -7.773   0.356  0.00  0.00    +0.000 OA
ATOM     38  O   UNK     0       1.648  -6.888  -1.637  0.00  0.00    +0.000 OA
ENDBRANCH  35  36
ENDBRANCH  34  35
ENDBRANCH   6  34
BRANCH  22  39
ATOM     39  C   UNK     0      -0.650  -0.330   2.085  0.00  0.00    +0.000 C 
BRANCH  39  40
ATOM     40  C   UNK     0      -0.556  -1.038   3.438  0.00  0.00    +0.000 C 
BRANCH  40  41
ATOM     41  C   UNK     0      -1.694  -2.013   3.588  0.00  0.00    +0.000 C 
ATOM     42  O   UNK     0      -2.854  -1.661   3.245  0.00  0.00    +0.000 OA
ATOM     43  O   UNK     0      -1.445  -3.150   4.067  0.00  0.00    +0.000 OA
ENDBRANCH  40  41
ENDBRANCH  39  40
ENDBRANCH  22  39
TORSDOF 8
ENDMDL
MODEL 3
REMARK VINA RESULT:    -9.581      1.083      6.052
REMARK INTER + INTRA:         -13.800
REMARK INTER:                 -12.838
REMARK INTRA:                  -0.962
REMARK UNBOUND:                 0.261
REMARK  Name = porphyrin.pdb
REMARK  12 active torsions:
REMARK  status: ('A' for Active; 'I' for Inactive)
REMARK    1  A    between atoms: C_6  and  C_10
REMARK    2  A    between atoms: C_7  and  C_9
REMARK    3  A    between atoms: C_10  and  C_11
REMARK    4  A    between atoms: C_11  and  C_12
REMARK    5  A    between atoms: C_16  and  C_19
REMARK    6  A    between atoms: C_17  and  C_20
REMARK    7  A    between atoms: C_23  and  C_26
REMARK    8  A    between atoms: C_24  and  C_27
REMARK    9  A    between atoms: C_30  and  C_33
REMARK   10  A    between atoms: C_31  and  C_34
REMARK   11  A    between atoms: C_34  and  C_35
REMARK   12  A    between atoms: C_35  and  C_36
REMARK                            x       y       z     vdW  Elec       q    Type
REMARK                         _______ _______ _______ _____ _____    ______ ____
ROOT
ATOM      1  C   UNK     0       4.791  -3.991  -1.770  0.00  0.00    +0.000 C 
ATOM      2  C   UNK     0       1.234  -2.172   0.971  0.00  0.00    +0.000 C 
ATOM      3  C   UNK     0       3.500   2.108   1.009  0.00  0.00    +0.000 C 
ATOM      4  C   UNK     0       7.206   0.176  -1.431  0.00  0.00    +0.000 C 
ATOM      5  C   UNK     0       3.621  -3.855  -1.061  0.00  0.00    +0.000 A 
ATOM      6  C   UNK     0       2.620  -4.880  -0.897  0.00  0.00    +0.000 A 
ATOM      7  C   UNK     0       1.632  -4.386  -0.148  0.00  0.00    +0.000 A 
ATOM      8  C   UNK     0       1.980  -3.028   0.200  0.00  0.00    +0.000 A 
ATOM      9  C   UNK     0       0.343  -5.114   0.282  0.00  0.00    +0.000 C 
ATOM     10  C   UNK     0       1.521  -0.846   1.193  0.00  0.00    +0.000 C 
ATOM     11  C   UNK     0       0.667   0.095   1.882  0.00  0.00    +0.000 C 
ATOM     12  C   UNK     0       1.288   1.286   1.883  0.00  0.00    +0.000 C 
ATOM     13  C   UNK     0       2.558   1.125   1.206  0.00  0.00    +0.000 C 
ATOM     14  C   UNK     0      -0.714  -0.269   2.477  0.00  0.00    +0.000 C 
ATOM     15  C   UNK     0       4.729   1.944   0.406  0.00  0.00    +0.000 A 
ATOM     16  C   UNK     0       5.796   2.925   0.357  0.00  0.00    +0.000 A 
ATOM     17  C   UNK     0       6.823   2.381  -0.324  0.00  0.00    +0.000 A 
ATOM     18  C   UNK     0       6.424   1.055  -0.718  0.00  0.00    +0.000 A 
ATOM     19  C   UNK     0       5.697   4.323   1.005  0.00  0.00    +0.000 C 
ATOM     20  C   UNK     0       6.864  -1.108  -1.767  0.00  0.00    +0.000 C 
ATOM     21  C   UNK     0       7.643  -2.008  -2.588  0.00  0.00    +0.000 C 
ATOM     22  C   UNK     0       6.978  -3.164  -2.681  0.00  0.00    +0.000 C 
ATOM     23  C   UNK     0       5.752  -3.027  -1.922  0.00  0.00    +0.000 C 
ATOM     24  C   UNK     0       9.007  -1.678  -3.232  0.00  0.00    +0.000 C 
ATOM     25  N   UNK     0       3.201  -2.734  -0.378  0.00  0.00    +0.000 N 
ATOM     26  N   UNK     0       2.670  -0.189   0.795  0.00  0.00    +0.000 N 
ATOM     27  N   UNK     0       5.155   0.819  -0.257  0.00  0.00    +0.000 N 
ATOM     28  N   UNK     0       5.710  -1.759  -1.373  0.00  0.00    +0.000 N 
ATOM     29 FE   UNK     0       4.220  -0.968  -0.265  0.00  0.00    +0.000 Fe
ENDROOT
BRANCH  12  30
ATOM     30  C   UNK     0       0.812   2.619   2.502  0.00  0.00    +0.000 C 
ATOM     31  C   UNK     0       1.568   3.296   3.372  0.00  0.00    +0.000 C 
ENDBRANCH  12  30
BRANCH  17  32
ATOM     32  C   UNK     0       8.217   2.943  -0.690  0.00  0.00    +0.000 C 
ATOM     33  C   UNK     0       9.025   3.492   0.218  0.00  0.00    +0.000 C 
ENDBRANCH  17  32
BRANCH   6  34
ATOM     34  C   UNK     0       2.708  -6.282  -1.529  0.00  0.00    +0.000 C 
BRANCH  34  35
ATOM     35  C   UNK     0       3.394  -7.271  -0.597  0.00  0.00    +0.000 C 
BRANCH  35  36
ATOM     36  C   UNK     0       4.197  -8.219  -1.448  0.00  0.00    +0.000 C 
ATOM     37  O   UNK     0       5.256  -7.803  -1.988  0.00  0.00    +0.000 OA
ATOM     38  O   UNK     0       3.790  -9.403  -1.581  0.00  0.00    +0.000 OA
ENDBRANCH  35  36
ENDBRANCH  34  35
ENDBRANCH   6  34
BRANCH  22  39
ATOM     39  C   UNK     0       7.417  -4.427  -3.458  0.00  0.00    +0.000 C 
BRANCH  39  40
ATOM     40  C   UNK     0       7.882  -5.520  -2.494  0.00  0.00    +0.000 C 
BRANCH  40  41
ATOM     41  C   UNK     0       9.381  -5.653  -2.552  0.00  0.00    +0.000 C 
ATOM     42  O   UNK     0      10.091  -4.929  -1.804  0.00  0.00    +0.000 OA
ATOM     43  O   UNK     0       9.876  -6.478  -3.362  0.00  0.00    +0.000 OA
ENDBRANCH  40  41
ENDBRANCH  39  40
ENDBRANCH  22  39
TORSDOF 8
ENDMDL
MODEL 4
REMARK VINA RESULT:    -9.251      2.084      5.954
REMARK INTER + INTRA:         -13.317
REMARK INTER:                 -13.382
REMARK INTRA:                   0.066
REMARK UNBOUND:                 0.261
REMARK  Name = porphyrin.pdb
REMARK  12 active torsions:
REMARK  status: ('A' for Active; 'I' for Inactive)
REMARK    1  A    between atoms: C_6  and  C_10
REMARK    2  A    between atoms: C_7  and  C_9
REMARK    3  A    between atoms: C_10  and  C_11
REMARK    4  A    between atoms: C_11  and  C_12
REMARK    5  A    between atoms: C_16  and  C_19
REMARK    6  A    between atoms: C_17  and  C_20
REMARK    7  A    between atoms: C_23  and  C_26
REMARK    8  A    between atoms: C_24  and  C_27
REMARK    9  A    between atoms: C_30  and  C_33
REMARK   10  A    between atoms: C_31  and  C_34
REMARK   11  A    between atoms: C_34  and  C_35
REMARK   12  A    between atoms: C_35  and  C_36
REMARK                            x       y       z     vdW  Elec       q    Type
REMARK                         _______ _______ _______ _____ _____    ______ ____
ROOT
ATOM      1  C   UNK     0       6.656  -0.342  -1.541  0.00  0.00    +0.000 C 
ATOM      2  C   UNK     0       3.195   1.839   1.056  0.00  0.00    +0.000 C 
ATOM      3  C   UNK     0       0.723  -2.324   1.190  0.00  0.00    +0.000 C 
ATOM      4  C   UNK     0       4.018  -4.383  -1.696  0.00  0.00    +0.000 C 
ATOM      5  C   UNK     0       5.947   0.593  -0.823  0.00  0.00    +0.000 A 
ATOM      6  C   UNK     0       6.378   1.943  -0.557  0.00  0.00    +0.000 A 
ATOM      7  C   UNK     0       5.433   2.551   0.164  0.00  0.00    +0.000 A 
ATOM      8  C   UNK     0       4.361   1.605   0.371  0.00  0.00    +0.000 A 
ATOM      9  C   UNK     0       5.458   3.998   0.692  0.00  0.00    +0.000 C 
ATOM     10  C   UNK     0       2.240   0.893   1.347  0.00  0.00    +0.000 C 
ATOM     11  C   UNK     0       1.083   1.099   2.188  0.00  0.00    +0.000 C 
ATOM     12  C   UNK     0       0.402  -0.057   2.237  0.00  0.00    +0.000 C 
ATOM     13  C   UNK     0       1.105  -1.021   1.415  0.00  0.00    +0.000 C 
ATOM     14  C   UNK     0       0.754   2.437   2.891  0.00  0.00    +0.000 C 
ATOM     15  C   UNK     0       1.365  -3.227   0.370  0.00  0.00    +0.000 A 
ATOM     16  C   UNK     0       0.874  -4.536  -0.014  0.00  0.00    +0.000 A 
ATOM     17  C   UNK     0       1.795  -5.103  -0.815  0.00  0.00    +0.000 A 
ATOM     18  C   UNK     0       2.883  -4.169  -0.949  0.00  0.00    +0.000 A 
ATOM     19  C   UNK     0      -0.486  -5.104   0.452  0.00  0.00    +0.000 C 
ATOM     20  C   UNK     0       5.036  -3.484  -1.878  0.00  0.00    +0.000 C 
ATOM     21  C   UNK     0       6.270  -3.731  -2.590  0.00  0.00    +0.000 C 
ATOM     22  C   UNK     0       7.002  -2.612  -2.552  0.00  0.00    +0.000 C 
ATOM     23  C   UNK     0       6.250  -1.623  -1.808  0.00  0.00    +0.000 C 
ATOM     24  C   UNK     0       6.658  -5.059  -3.275  0.00  0.00    +0.000 C 
ATOM     25  N   UNK     0       4.711   0.416  -0.242  0.00  0.00    +0.000 N 
ATOM     26  N   UNK     0       2.225  -0.409   0.886  0.00  0.00    +0.000 N 
ATOM     27  N   UNK     0       2.590  -3.042  -0.224  0.00  0.00    +0.000 N 
ATOM     28  N   UNK     0       5.052  -2.184  -1.410  0.00  0.00    +0.000 N 
ATOM     29 FE   UNK     0       3.616  -1.308  -0.292  0.00  0.00    +0.000 Fe
ENDROOT
BRANCH  12  30
ATOM     30  C   UNK     0      -0.913  -0.370   2.985  0.00  0.00    +0.000 C 
ATOM     31  C   UNK     0      -1.231  -1.616   3.352  0.00  0.00    +0.000 C 
ENDBRANCH  12  30
BRANCH  17  32
ATOM     32  C   UNK     0       1.823  -6.476  -1.527  0.00  0.00    +0.000 C 
ATOM     33  C   UNK     0       2.041  -7.615  -0.869  0.00  0.00    +0.000 C 
ENDBRANCH  17  32
BRANCH   6  34
ATOM     34  C   UNK     0       7.726   2.527  -1.021  0.00  0.00    +0.000 C 
BRANCH  34  35
ATOM     35  C   UNK     0       8.825   1.475  -1.003  0.00  0.00    +0.000 C 
BRANCH  35  36
ATOM     36  C   UNK     0       9.396   1.388  -2.394  0.00  0.00    +0.000 C 
ATOM     37  O   UNK     0      10.390   0.641  -2.598  0.00  0.00    +0.000 OA
ATOM     38  O   UNK     0       8.852   2.055  -3.312  0.00  0.00    +0.000 OA
ENDBRANCH  35  36
ENDBRANCH  34  35
ENDBRANCH   6  34
BRANCH  22  39
ATOM     39  C   UNK     0       8.401  -2.396  -3.176  0.00  0.00    +0.000 C 
BRANCH  39  40
ATOM     40  C   UNK     0       9.493  -2.549  -2.117  0.00  0.00    +0.000 C 
BRANCH  40  41
ATOM     41  C   UNK     0       9.569  -3.982  -1.659  0.00  0.00    +0.000 C 
ATOM     42  O   UNK     0       9.430  -4.243  -0.434  0.00  0.00    +0.000 OA
ATOM     43  O   UNK     0       9.784  -4.873  -2.521  0.00  0.00    +0.000 OA
ENDBRANCH  40  41
ENDBRANCH  39  40
ENDBRANCH  22  39
TORSDOF 8
ENDMDL
MODEL 5
REMARK VINA RESULT:    -8.904      3.491      7.912
REMARK INTER + INTRA:         -12.807
REMARK INTER:                 -12.351
REMARK INTRA:                  -0.456
REMARK UNBOUND:                 0.261
REMARK  Name = porphyrin.pdb
REMARK  12 active torsions:
REMARK  status: ('A' for Active; 'I' for Inactive)
REMARK    1  A    between atoms: C_6  and  C_10
REMARK    2  A    between atoms: C_7  and  C_9
REMARK    3  A    between atoms: C_10  and  C_11
REMARK    4  A    between atoms: C_11  and  C_12
REMARK    5  A    between atoms: C_16  and  C_19
REMARK    6  A    between atoms: C_17  and  C_20
REMARK    7  A    between atoms: C_23  and  C_26
REMARK    8  A    between atoms: C_24  and  C_27
REMARK    9  A    between atoms: C_30  and  C_33
REMARK   10  A    between atoms: C_31  and  C_34
REMARK   11  A    between atoms: C_34  and  C_35
REMARK   12  A    between atoms: C_35  and  C_36
REMARK                            x       y       z     vdW  Elec       q    Type
REMARK                         _______ _______ _______ _____ _____    ______ ____
ROOT
ATOM      1  C   UNK     0       6.256   0.484  -1.093  0.00  0.00    +0.000 C 
ATOM      2  C   UNK     0       2.059   0.828   1.306  0.00  0.00    +0.000 C 
ATOM      3  C   UNK     0       1.484  -3.964   0.915  0.00  0.00    +0.000 C 
ATOM      4  C   UNK     0       5.497  -4.235  -1.777  0.00  0.00    +0.000 C 
ATOM      5  C   UNK     0       5.188   0.980  -0.383  0.00  0.00    +0.000 A 
ATOM      6  C   UNK     0       5.017   2.356   0.016  0.00  0.00    +0.000 A 
ATOM      7  C   UNK     0       3.866   2.460   0.683  0.00  0.00    +0.000 A 
ATOM      8  C   UNK     0       3.259   1.150   0.721  0.00  0.00    +0.000 A 
ATOM      9  C   UNK     0       3.270   3.736   1.309  0.00  0.00    +0.000 C 
ATOM     10  C   UNK     0       1.554  -0.444   1.437  0.00  0.00    +0.000 C 
ATOM     11  C   UNK     0       0.365  -0.803   2.177  0.00  0.00    +0.000 C 
ATOM     12  C   UNK     0       0.210  -2.133   2.080  0.00  0.00    +0.000 C 
ATOM     13  C   UNK     0       1.291  -2.648   1.264  0.00  0.00    +0.000 C 
ATOM     14  C   UNK     0      -0.519   0.214   2.935  0.00  0.00    +0.000 C 
ATOM     15  C   UNK     0       2.485  -4.449   0.100  0.00  0.00    +0.000 A 
ATOM     16  C   UNK     0       2.590  -5.799  -0.419  0.00  0.00    +0.000 A 
ATOM     17  C   UNK     0       3.708  -5.867  -1.166  0.00  0.00    +0.000 A 
ATOM     18  C   UNK     0       4.330  -4.568  -1.130  0.00  0.00    +0.000 A 
ATOM     19  C   UNK     0       1.553  -6.905  -0.126  0.00  0.00    +0.000 C 
ATOM     20  C   UNK     0       6.072  -2.992  -1.800  0.00  0.00    +0.000 C 
ATOM     21  C   UNK     0       7.340  -2.652  -2.405  0.00  0.00    +0.000 C 
ATOM     22  C   UNK     0       7.552  -1.345  -2.220  0.00  0.00    +0.000 C 
ATOM     23  C   UNK     0       6.421  -0.818  -1.485  0.00  0.00    +0.000 C 
ATOM     24  C   UNK     0       8.273  -3.639  -3.140  0.00  0.00    +0.000 C 
ATOM     25  N   UNK     0       4.096   0.268   0.063  0.00  0.00    +0.000 N 
ATOM     26  N   UNK     0       2.096  -1.590   0.889  0.00  0.00    +0.000 N 
ATOM     27  N   UNK     0       3.563  -3.732  -0.361  0.00  0.00    +0.000 N 
ATOM     28  N   UNK     0       5.531  -1.848  -1.243  0.00  0.00    +0.000 N 
ATOM     29 FE   UNK     0       3.800  -1.735  -0.210  0.00  0.00    +0.000 Fe
ENDROOT
BRANCH  12  30
ATOM     30  C   UNK     0      -0.908  -3.018   2.675  0.00  0.00    +0.000 C 
ATOM     31  C   UNK     0      -1.329  -2.863   3.934  0.00  0.00    +0.000 C 
ENDBRANCH  12  30
BRANCH  17  32
ATOM     32  C   UNK     0       4.333  -7.035  -1.965  0.00  0.00    +0.000 C 
ATOM     33  C   UNK     0       4.668  -8.191  -1.391  0.00  0.00    +0.000 C 
ENDBRANCH  17  32
BRANCH   6  34
ATOM     34  C   UNK     0       6.037   3.473  -0.276  0.00  0.00    +0.000 C 
BRANCH  34  35
ATOM     35  C   UNK     0       6.734   3.937   0.995  0.00  0.00    +0.000 C 
BRANCH  35  36
ATOM     36  C   UNK     0       6.768   5.442   0.972  0.00  0.00    +0.000 C 
ATOM     37  O   UNK     0       5.909   6.079   1.638  0.00  0.00    +0.000 OA
ATOM     38  O   UNK     0       7.664   6.016   0.300  0.00  0.00    +0.000 OA
ENDBRANCH  35  36
ENDBRANCH  34  35
ENDBRANCH   6  34
BRANCH  22  39
ATOM     39  C   UNK     0       8.778  -0.527  -2.691  0.00  0.00    +0.000 C 
BRANCH  39  40
ATOM     40  C   UNK     0       9.297   0.364  -1.563  0.00  0.00    +0.000 C 
BRANCH  40  41
ATOM     41  C   UNK     0       9.106   1.814  -1.924  0.00  0.00    +0.000 C 
ATOM     42  O   UNK     0       9.304   2.697  -1.047  0.00  0.00    +0.000 OA
ATOM     43  O   UNK     0       8.738   2.093  -3.094  0.00  0.00    +0.000 OA
ENDBRANCH  40  41
ENDBRANCH  39  40
ENDBRANCH  22  39
TORSDOF 8
ENDMDL
MODEL 6
REMARK VINA RESULT:    -8.866      4.112      7.679
REMARK INTER + INTRA:         -12.752
REMARK INTER:                 -11.775
REMARK INTRA:                  -0.976
REMARK UNBOUND:                 0.261
REMARK  Name = porphyrin.pdb
REMARK  12 active torsions:
REMARK  status: ('A' for Active; 'I' for Inactive)
REMARK    1  A    between atoms: C_6  and  C_10
REMARK    2  A    between atoms: C_7  and  C_9
REMARK    3  A    between atoms: C_10  and  C_11
REMARK    4  A    between atoms: C_11  and  C_12
REMARK    5  A    between atoms: C_16  and  C_19
REMARK    6  A    between atoms: C_17  and  C_20
REMARK    7  A    between atoms: C_23  and  C_26
REMARK    8  A    between atoms: C_24  and  C_27
REMARK    9  A    between atoms: C_30  and  C_33
REMARK   10  A    between atoms: C_31  and  C_34
REMARK   11  A    between atoms: C_34  and  C_35
REMARK   12  A    between atoms: C_35  and  C_36
REMARK                            x       y       z     vdW  Elec       q    Type
REMARK                         _______ _______ _______ _____ _____    ______ ____
ROOT
ATOM      1  C   UNK     0       5.359   1.799  -0.170  0.00  0.00    +0.000 C 
ATOM      2  C   UNK     0       7.514  -2.114  -2.048  0.00  0.00    +0.000 C 
ATOM      3  C   UNK     0       3.573  -4.734  -1.016  0.00  0.00    +0.000 C 
ATOM      4  C   UNK     0       1.585  -0.899   1.166  0.00  0.00    +0.000 C 
ATOM      5  C   UNK     0       6.263   0.972  -0.795  0.00  0.00    +0.000 A 
ATOM      6  C   UNK     0       7.538   1.383  -1.332  0.00  0.00    +0.000 A 
ATOM      7  C   UNK     0       8.137   0.312  -1.857  0.00  0.00    +0.000 A 
ATOM      8  C   UNK     0       7.264  -0.821  -1.661  0.00  0.00    +0.000 A 
ATOM      9  C   UNK     0       9.511   0.268  -2.552  0.00  0.00    +0.000 C 
ATOM     10  C   UNK     0       6.622  -3.157  -1.962  0.00  0.00    +0.000 C 
ATOM     11  C   UNK     0       6.826  -4.484  -2.498  0.00  0.00    +0.000 C 
ATOM     12  C   UNK     0       5.730  -5.209  -2.224  0.00  0.00    +0.000 C 
ATOM     13  C   UNK     0       4.808  -4.362  -1.494  0.00  0.00    +0.000 C 
ATOM     14  C   UNK     0       8.101  -4.920  -3.257  0.00  0.00    +0.000 C 
ATOM     15  C   UNK     0       2.716  -3.943  -0.280  0.00  0.00    +0.000 A 
ATOM     16  C   UNK     0       1.501  -4.379   0.379  0.00  0.00    +0.000 A 
ATOM     17  C   UNK     0       0.953  -3.308   0.983  0.00  0.00    +0.000 A 
ATOM     18  C   UNK     0       1.806  -2.179   0.714  0.00  0.00    +0.000 A 
ATOM     19  C   UNK     0       0.997  -5.839   0.353  0.00  0.00    +0.000 C 
ATOM     20  C   UNK     0       2.413   0.174   0.966  0.00  0.00    +0.000 C 
ATOM     21  C   UNK     0       2.148   1.539   1.363  0.00  0.00    +0.000 C 
ATOM     22  C   UNK     0       3.193   2.288   0.997  0.00  0.00    +0.000 C 
ATOM     23  C   UNK     0       4.152   1.416   0.352  0.00  0.00    +0.000 C 
ATOM     24  C   UNK     0       0.876   2.028   2.088  0.00  0.00    +0.000 C 
ATOM     25  N   UNK     0       6.125  -0.381  -1.012  0.00  0.00    +0.000 N 
ATOM     26  N   UNK     0       5.383  -3.114  -1.352  0.00  0.00    +0.000 N 
ATOM     27  N   UNK     0       2.866  -2.597  -0.048  0.00  0.00    +0.000 N 
ATOM     28  N   UNK     0       3.649   0.129   0.348  0.00  0.00    +0.000 N 
ATOM     29 FE   UNK     0       4.510  -1.506  -0.466  0.00  0.00    +0.000 Fe
ENDROOT
BRANCH  12  30
ATOM     30  C   UNK     0       5.444  -6.689  -2.564  0.00  0.00    +0.000 C 
ATOM     31  C   UNK     0       5.074  -7.564  -1.623  0.00  0.00    +0.000 C 
ENDBRANCH  12  30
BRANCH  17  32
ATOM     32  C   UNK     0      -0.332  -3.160   1.832  0.00  0.00    +0.000 C 
ATOM     33  C   UNK     0      -0.309  -3.168   3.165  0.00  0.00    +0.000 C 
ENDBRANCH  17  32
BRANCH   6  34
ATOM     34  C   UNK     0       8.059   2.833  -1.306  0.00  0.00    +0.000 C 
BRANCH  34  35
ATOM     35  C   UNK     0       8.473   3.251   0.098  0.00  0.00    +0.000 C 
BRANCH  35  36
ATOM     36  C   UNK     0       7.670   4.470   0.466  0.00  0.00    +0.000 C 
ATOM     37  O   UNK     0       7.628   4.830   1.672  0.00  0.00    +0.000 OA
ATOM     38  O   UNK     0       7.076   5.100  -0.448  0.00  0.00    +0.000 OA
ENDBRANCH  35  36
ENDBRANCH  34  35
ENDBRANCH   6  34
BRANCH  22  39
ATOM     39  C   UNK     0       3.363   3.811   1.209  0.00  0.00    +0.000 C 
BRANCH  39  40
ATOM     40  C   UNK     0       4.239   4.091   2.431  0.00  0.00    +0.000 C 
BRANCH  40  41
ATOM     41  C   UNK     0       4.217   5.563   2.752  0.00  0.00    +0.000 C 
ATOM     42  O   UNK     0       4.571   6.389   1.869  0.00  0.00    +0.000 OA
ATOM     43  O   UNK     0       3.856   5.916   3.905  0.00  0.00    +0.000 OA
ENDBRANCH  40  41
ENDBRANCH  39  40
ENDBRANCH  22  39
TORSDOF 8
ENDMDL
MODEL 7
REMARK VINA RESULT:    -8.810      3.957      9.337
REMARK INTER + INTRA:         -12.668
REMARK INTER:                 -11.543
REMARK INTRA:                  -1.125
REMARK UNBOUND:                 0.261
REMARK  Name = porphyrin.pdb
REMARK  12 active torsions:
REMARK  status: ('A' for Active; 'I' for Inactive)
REMARK    1  A    between atoms: C_6  and  C_10
REMARK    2  A    between atoms: C_7  and  C_9
REMARK    3  A    between atoms: C_10  and  C_11
REMARK    4  A    between atoms: C_11  and  C_12
REMARK    5  A    between atoms: C_16  and  C_19
REMARK    6  A    between atoms: C_17  and  C_20
REMARK    7  A    between atoms: C_23  and  C_26
REMARK    8  A    between atoms: C_24  and  C_27
REMARK    9  A    between atoms: C_30  and  C_33
REMARK   10  A    between atoms: C_31  and  C_34
REMARK   11  A    between atoms: C_34  and  C_35
REMARK   12  A    between atoms: C_35  and  C_36
REMARK                            x       y       z     vdW  Elec       q    Type
REMARK                         _______ _______ _______ _____ _____    ______ ____
ROOT
ATOM      1  C   UNK     0       5.366   1.510  -0.365  0.00  0.00    +0.000 C 
ATOM      2  C   UNK     0       1.635  -1.363   0.777  0.00  0.00    +0.000 C 
ATOM      3  C   UNK     0       4.131  -5.187  -0.836  0.00  0.00    +0.000 C 
ATOM      4  C   UNK     0       7.699  -2.256  -2.287  0.00  0.00    +0.000 C 
ATOM      5  C   UNK     0       4.159   1.054   0.112  0.00  0.00    +0.000 A 
ATOM      6  C   UNK     0       3.152   1.868   0.748  0.00  0.00    +0.000 A 
ATOM      7  C   UNK     0       2.122   1.084   1.072  0.00  0.00    +0.000 A 
ATOM      8  C   UNK     0       2.437  -0.258   0.640  0.00  0.00    +0.000 A 
ATOM      9  C   UNK     0       0.821   1.510   1.779  0.00  0.00    +0.000 C 
ATOM     10  C   UNK     0       1.998  -2.653   0.470  0.00  0.00    +0.000 C 
ATOM     11  C   UNK     0       1.214  -3.836   0.746  0.00  0.00    +0.000 C 
ATOM     12  C   UNK     0       1.909  -4.898   0.311  0.00  0.00    +0.000 C 
ATOM     13  C   UNK     0       3.147  -4.413  -0.265  0.00  0.00    +0.000 C 
ATOM     14  C   UNK     0      -0.169  -3.811   1.437  0.00  0.00    +0.000 C 
ATOM     15  C   UNK     0       5.287  -4.723  -1.426  0.00  0.00    +0.000 A 
ATOM     16  C   UNK     0       6.237  -5.511  -2.187  0.00  0.00    +0.000 A 
ATOM     17  C   UNK     0       7.227  -4.690  -2.587  0.00  0.00    +0.000 A 
ATOM     18  C   UNK     0       6.924  -3.374  -2.084  0.00  0.00    +0.000 A 
ATOM     19  C   UNK     0       6.066  -7.022  -2.455  0.00  0.00    +0.000 C 
ATOM     20  C   UNK     0       7.398  -0.988  -1.864  0.00  0.00    +0.000 C 
ATOM     21  C   UNK     0       8.245   0.176  -1.997  0.00  0.00    +0.000 C 
ATOM     22  C   UNK     0       7.601   1.221  -1.469  0.00  0.00    +0.000 C 
ATOM     23  C   UNK     0       6.323   0.747  -0.980  0.00  0.00    +0.000 C 
ATOM     24  C   UNK     0       9.646   0.193  -2.646  0.00  0.00    +0.000 C 
ATOM     25  N   UNK     0       3.692  -0.241   0.061  0.00  0.00    +0.000 N 
ATOM     26  N   UNK     0       3.172  -3.037  -0.150  0.00  0.00    +0.000 N 
ATOM     27  N   UNK     0       5.742  -3.427  -1.392  0.00  0.00    +0.000 N 
ATOM     28  N   UNK     0       6.226  -0.608  -1.236  0.00  0.00    +0.000 N 
ATOM     29 FE   UNK     0       4.701  -1.831  -0.731  0.00  0.00    +0.000 Fe
ENDROOT
BRANCH  12  30
ATOM     30  C   UNK     0       1.513  -6.391   0.352  0.00  0.00    +0.000 C 
ATOM     31  C   UNK     0       1.292  -7.088  -0.767  0.00  0.00    +0.000 C 
ENDBRANCH  12  30
BRANCH  17  32
ATOM     32  C   UNK     0       8.501  -4.957  -3.422  0.00  0.00    +0.000 C 
ATOM     33  C   UNK     0       9.498  -5.721  -2.975  0.00  0.00    +0.000 C 
ENDBRANCH  17  32
BRANCH   6  34
ATOM     34  C   UNK     0       3.304   3.378   1.014  0.00  0.00    +0.000 C 
BRANCH  34  35
ATOM     35  C   UNK     0       3.711   3.652   2.455  0.00  0.00    +0.000 C 
BRANCH  35  36
ATOM     36  C   UNK     0       3.567   5.131   2.696  0.00  0.00    +0.000 C 
ATOM     37  O   UNK     0       3.953   5.608   3.796  0.00  0.00    +0.000 OA
ATOM     38  O   UNK     0       3.079   5.846   1.783  0.00  0.00    +0.000 OA
ENDBRANCH  35  36
ENDBRANCH  34  35
ENDBRANCH   6  34
BRANCH  22  39
ATOM     39  C   UNK     0       8.112   2.679  -1.380  0.00  0.00    +0.000 C 
BRANCH  39  40
ATOM     40  C   UNK     0       8.690   2.964   0.007  0.00  0.00    +0.000 C 
BRANCH  40  41
ATOM     41  C   UNK     0       7.980   4.139   0.627  0.00  0.00    +0.000 C 
ATOM     42  O   UNK     0       7.008   3.931   1.401  0.00  0.00    +0.000 OA
ATOM     43  O   UNK     0       8.378   5.297   0.337  0.00  0.00    +0.000 OA
ENDBRANCH  40  41
ENDBRANCH  39  40
ENDBRANCH  22  39
TORSDOF 8
ENDMDL
MODEL 8
REMARK VINA RESULT:    -8.210      1.608      5.955
REMARK INTER + INTRA:         -11.788
REMARK INTER:                 -11.546
REMARK INTRA:                  -0.242
REMARK UNBOUND:                 0.261
REMARK  Name = porphyrin.pdb
REMARK  12 active torsions:
REMARK  status: ('A' for Active; 'I' for Inactive)
REMARK    1  A    between atoms: C_6  and  C_10
REMARK    2  A    between atoms: C_7  and  C_9
REMARK    3  A    between atoms: C_10  and  C_11
REMARK    4  A    between atoms: C_11  and  C_12
REMARK    5  A    between atoms: C_16  and  C_19
REMARK    6  A    between atoms: C_17  and  C_20
REMARK    7  A    between atoms: C_23  and  C_26
REMARK    8  A    between atoms: C_24  and  C_27
REMARK    9  A    between atoms: C_30  and  C_33
REMARK   10  A    between atoms: C_31  and  C_34
REMARK   11  A    between atoms: C_34  and  C_35
REMARK   12  A    between atoms: C_35  and  C_36
REMARK                            x       y       z     vdW  Elec       q    Type
REMARK                         _______ _______ _______ _____ _____    ______ ____
ROOT
ATOM      1  C   UNK     0       3.326  -3.853  -0.948  0.00  0.00    +0.000 C 
ATOM      2  C   UNK     0       1.471  -0.376   1.872  0.00  0.00    +0.000 C 
ATOM      3  C   UNK     0       4.886   2.675   0.297  0.00  0.00    +0.000 C 
ATOM      4  C   UNK     0       6.927  -0.907  -2.239  0.00  0.00    +0.000 C 
ATOM      5  C   UNK     0       2.514  -3.163  -0.077  0.00  0.00    +0.000 A 
ATOM      6  C   UNK     0       1.331  -3.691   0.557  0.00  0.00    +0.000 A 
ATOM      7  C   UNK     0       0.809  -2.738   1.331  0.00  0.00    +0.000 A 
ATOM      8  C   UNK     0       1.653  -1.572   1.224  0.00  0.00    +0.000 A 
ATOM      9  C   UNK     0      -0.464  -2.841   2.194  0.00  0.00    +0.000 C 
ATOM     10  C   UNK     0       2.214   0.762   1.667  0.00  0.00    +0.000 C 
ATOM     11  C   UNK     0       1.937   2.061   2.238  0.00  0.00    +0.000 C 
ATOM     12  C   UNK     0       2.876   2.912   1.793  0.00  0.00    +0.000 C 
ATOM     13  C   UNK     0       3.780   2.168   0.939  0.00  0.00    +0.000 C 
ATOM     14  C   UNK     0       0.744   2.354   3.177  0.00  0.00    +0.000 C 
ATOM     15  C   UNK     0       5.774   1.958  -0.477  0.00  0.00    +0.000 A 
ATOM     16  C   UNK     0       7.035   2.441  -1.005  0.00  0.00    +0.000 A 
ATOM     17  C   UNK     0       7.597   1.440  -1.710  0.00  0.00    +0.000 A 
ATOM     18  C   UNK     0       6.702   0.313  -1.644  0.00  0.00    +0.000 A 
ATOM     19  C   UNK     0       7.574   3.866  -0.750  0.00  0.00    +0.000 C 
ATOM     20  C   UNK     0       6.115  -2.006  -2.141  0.00  0.00    +0.000 C 
ATOM     21  C   UNK     0       6.299  -3.263  -2.831  0.00  0.00    +0.000 C 
ATOM     22  C   UNK     0       5.305  -4.082  -2.473  0.00  0.00    +0.000 C 
ATOM     23  C   UNK     0       4.457  -3.363  -1.545  0.00  0.00    +0.000 C 
ATOM     24  C   UNK     0       7.452  -3.589  -3.805  0.00  0.00    +0.000 C 
ATOM     25  N   UNK     0       2.685  -1.865   0.351  0.00  0.00    +0.000 N 
ATOM     26  N   UNK     0       3.347   0.858   0.881  0.00  0.00    +0.000 N 
ATOM     27  N   UNK     0       5.612   0.656  -0.887  0.00  0.00    +0.000 N 
ATOM     28  N   UNK     0       4.978  -2.096  -1.360  0.00  0.00    +0.000 N 
ATOM     29 FE   UNK     0       4.198  -0.620  -0.224  0.00  0.00    +0.000 Fe
ENDROOT
BRANCH  12  30
ATOM     30  C   UNK     0       3.046   4.413   2.115  0.00  0.00    +0.000 C 
ATOM     31  C   UNK     0       3.958   4.843   2.992  0.00  0.00    +0.000 C 
ENDBRANCH  12  30
BRANCH  17  32
ATOM     32  C   UNK     0       8.930   1.364  -2.490  0.00  0.00    +0.000 C 
ATOM     33  C   UNK     0       9.906   0.521  -2.151  0.00  0.00    +0.000 C 
ENDBRANCH  17  32
BRANCH   6  34
ATOM     34  C   UNK     0       0.786  -5.113   0.320  0.00  0.00    +0.000 C 
BRANCH  34  35
ATOM     35  C   UNK     0       1.895  -6.076  -0.079  0.00  0.00    +0.000 C 
BRANCH  35  36
ATOM     36  C   UNK     0       1.307  -7.462  -0.108  0.00  0.00    +0.000 C 
ATOM     37  O   UNK     0       2.080  -8.453  -0.022  0.00  0.00    +0.000 OA
ATOM     38  O   UNK     0       0.058  -7.585  -0.204  0.00  0.00    +0.000 OA
ENDBRANCH  35  36
ENDBRANCH  34  35
ENDBRANCH   6  34
BRANCH  22  39
ATOM     39  C   UNK     0       5.079  -5.534  -2.956  0.00  0.00    +0.000 C 
BRANCH  39  40
ATOM     40  C   UNK     0       5.999  -6.501  -2.208  0.00  0.00    +0.000 C 
BRANCH  40  41
ATOM     41  C   UNK     0       5.202  -7.303  -1.213  0.00  0.00    +0.000 C 
ATOM     42  O   UNK     0       5.046  -6.853  -0.046  0.00  0.00    +0.000 OA
ATOM     43  O   UNK     0       4.728  -8.409  -1.581  0.00  0.00    +0.000 OA
ENDBRANCH  40  41
ENDBRANCH  39  40
ENDBRANCH  22  39
TORSDOF 8
ENDMDL
