REMARK  Name = caffeic_minimized.pdb
REMARK  5 active torsions:
REMARK  status: ('A' for Active; 'I' for Inactive)
REMARK    1  A    between atoms: O_1  and  C_8
REMARK    2  A    between atoms: O_2  and  C_9
REMARK    3  A    between atoms: O_3  and  C_13
REMARK    4  A    between atoms: C_5  and  C_11
REMARK    5  A    between atoms: C_12  and  C_13
REMARK                            x       y       z     vdW  Elec       q    Type
REMARK                         _______ _______ _______ _____ _____    ______ ____
ROOT
ATOM      1  C   UNL     1       0.221  -0.363  -0.253  0.00  0.00    +0.000 A 
ATOM      2  C   UNL     1      -0.788  -0.535   0.706  0.00  0.00    +0.000 A 
ATOM      3  C   UNL     1       0.114  -1.032  -1.481  0.00  0.00    +0.000 A 
ATOM      4  C   UNL     1      -1.893  -1.340   0.422  0.00  0.00    +0.000 A 
ATOM      5  C   UNL     1      -1.996  -1.986  -0.809  0.00  0.00    +0.000 A 
ATOM      6  C   UNL     1      -0.994  -1.838  -1.763  0.00  0.00    +0.000 A 
ENDROOT
BRANCH   4   7
ATOM      7  O   UNL     1      -2.882  -1.509   1.350  0.00  0.00    +0.000 OA
ATOM      8  H   UNL     1      -2.655  -1.017   2.154  0.00  0.00    +0.000 HD
ENDBRANCH   4   7
BRANCH   5   9
ATOM      9  O   UNL     1      -3.086  -2.769  -1.067  0.00  0.00    +0.000 OA
ATOM     10  H   UNL     1      -3.004  -3.144  -1.957  0.00  0.00    +0.000 HD
ENDBRANCH   5   9
BRANCH   1  11
ATOM     11  C   UNL     1       1.417   0.450   0.004  0.00  0.00    +0.000 C 
ATOM     12  C   UNL     1       1.405   1.604   0.689  0.00  0.00    +0.000 C 
BRANCH  12  14
ATOM     13  O   UNL     1       3.762   2.059   0.464  0.00  0.00    +0.000 OA
ATOM     14  C   UNL     1       2.656   2.350   0.876  0.00  0.00    +0.000 C 
BRANCH  14  15
ATOM     15  O   UNL     1       2.427   3.457   1.599  0.00  0.00    +0.000 OA
ATOM     16  H   UNL     1       3.309   3.879   1.666  0.00  0.00    +0.000 HD
ENDBRANCH  14  15
ENDBRANCH  12  14
ENDBRANCH   1  11
TORSDOF 5
